%kjob l301
%chk=structure-1-Vc.chk
%nproc=1
%mem=1000mb
#p b3lyp 6-31g*
# scrf=(iefpcm,solvent=cyclohexane,read) nosym guess=only pop=none

title

0 1
 C    -0.941240     0.709078    -1.447500
 C    -1.130144    -0.586439    -1.688764
 H    -0.187383     1.270013    -1.985885
 H    -0.546479    -1.097826    -2.445614
 C    -2.213721    -1.349362    -0.978023
 H    -3.123677    -1.301662    -1.591424
 H    -1.953148    -2.406359    -0.901332
 C    -1.753199     1.406457    -0.450967
 H    -1.718481     2.488604    -0.416537
 C    -2.498772     0.723169     0.416199
 H    -3.072350     1.240660     1.176490
 C    -2.498247    -0.780221     0.412174
 H    -3.447477    -1.166814     0.787115
 H    -1.724665    -1.122064     1.111268
 C     2.576005    -0.058432    -0.624796
 C     2.259201     1.245519     0.052337
 C     1.443331     1.283534     1.104783
 C     0.864455     0.053379     1.642538
 C     1.343111    -1.135379     1.281075
 C     2.518953    -1.235476     0.348814
 H     1.175601     2.227900     1.562761
 H     2.658280     2.161148    -0.368562
 H     1.841411    -0.211714    -1.425701
 H     3.555179    -0.016744    -1.104840
 H     0.043038     0.131938     2.344097
 H     0.931882    -2.046820     1.699547
 H     3.435020    -1.259975     0.954472
 H     2.493558    -2.175989    -0.204125

qrep pcmdoc geomview nodis nocav g03defaults tsare=0.075
nsfe=28
nvesolv=36 solvmw=84.1595 rsolv=2.815
eps=2.0165 rhos=0.7781                  

     -0.941240     0.709078    -1.447500  1.7  1.2
     -1.130144    -0.586439    -1.688764  1.7  1.2
     -0.187383     1.270013    -1.985885  1.2  1.2
     -0.546479    -1.097826    -2.445614  1.2  1.2
     -2.213721    -1.349362    -0.978023  1.7  1.2
     -3.123677    -1.301662    -1.591424  1.2  1.2
     -1.953148    -2.406359    -0.901332  1.2  1.2
     -1.753199     1.406457    -0.450967  1.7  1.2
     -1.718481     2.488604    -0.416537  1.2  1.2
     -2.498772     0.723169     0.416199  1.7  1.2
     -3.072350     1.240660     1.176490  1.2  1.2
     -2.498247    -0.780221     0.412174  1.7  1.2
     -3.447477    -1.166814     0.787115  1.2  1.2
     -1.724665    -1.122064     1.111268  1.2  1.2
      2.576005    -0.058432    -0.624796  1.7  1.2
      2.259201     1.245519     0.052337  1.7  1.2
      1.443331     1.283534     1.104783  1.7  1.2
      0.864455     0.053379     1.642538  1.7  1.2
      1.343111    -1.135379     1.281075  1.7  1.2
      2.518953    -1.235476     0.348814  1.7  1.2
      1.175601     2.227900     1.562761  1.2  1.2
      2.658280     2.161148    -0.368562  1.2  1.2
      1.841411    -0.211714    -1.425701  1.2  1.2
      3.555179    -0.016744    -1.104840  1.2  1.2
      0.043038     0.131938     2.344097  1.2  1.2
      0.931882    -2.046820     1.699547  1.2  1.2
      3.435020    -1.259975     0.954472  1.2  1.2
      2.493558    -2.175989    -0.204125  1.2  1.2

--link1--
%kjob l301
%chk=structure-1-Vc.chk
%nproc=1
%mem=1000mb
#p b3lyp 6-31g*
# scrf=(iefpcm,solvent=cyclohexane,read) nosym guess=only pop=none

title

0 1
 C    -0.941240     0.709078    -1.447500
 C    -1.130144    -0.586439    -1.688764
 H    -0.187383     1.270013    -1.985885
 H    -0.546479    -1.097826    -2.445614
 C    -2.213721    -1.349362    -0.978023
 H    -3.123677    -1.301662    -1.591424
 H    -1.953148    -2.406359    -0.901332
 C    -1.753199     1.406457    -0.450967
 H    -1.718481     2.488604    -0.416537
 C    -2.498772     0.723169     0.416199
 H    -3.072350     1.240660     1.176490
 C    -2.498247    -0.780221     0.412174
 H    -3.447477    -1.166814     0.787115
 H    -1.724665    -1.122064     1.111268
 C     2.576005    -0.058432    -0.624796
 C     2.259201     1.245519     0.052337
 C     1.443331     1.283534     1.104783
 C     0.864455     0.053379     1.642538
 C     1.343111    -1.135379     1.281075
 C     2.518953    -1.235476     0.348814
 H     1.175601     2.227900     1.562761
 H     2.658280     2.161148    -0.368562
 H     1.841411    -0.211714    -1.425701
 H     3.555179    -0.016744    -1.104840
 H     0.043038     0.131938     2.344097
 H     0.931882    -2.046820     1.699547
 H     3.435020    -1.259975     0.954472
 H     2.493558    -2.175989    -0.204125

qrep pcmdoc geomview nodis nocav g03defaults tsare=0.075
nsfe=28
nvesolv=36 solvmw=84.1595 rsolv=2.815
eps=2.0165 rhos=0.7781                  

     -0.941240     0.709078    -1.447500  1.7  1.15
     -1.130144    -0.586439    -1.688764  1.7  1.15
     -0.187383     1.270013    -1.985885  1.2  1.15
     -0.546479    -1.097826    -2.445614  1.2  1.15
     -2.213721    -1.349362    -0.978023  1.7  1.15
     -3.123677    -1.301662    -1.591424  1.2  1.15
     -1.953148    -2.406359    -0.901332  1.2  1.15
     -1.753199     1.406457    -0.450967  1.7  1.15
     -1.718481     2.488604    -0.416537  1.2  1.15
     -2.498772     0.723169     0.416199  1.7  1.15
     -3.072350     1.240660     1.176490  1.2  1.15
     -2.498247    -0.780221     0.412174  1.7  1.15
     -3.447477    -1.166814     0.787115  1.2  1.15
     -1.724665    -1.122064     1.111268  1.2  1.15
      2.576005    -0.058432    -0.624796  1.7  1.15
      2.259201     1.245519     0.052337  1.7  1.15
      1.443331     1.283534     1.104783  1.7  1.15
      0.864455     0.053379     1.642538  1.7  1.15
      1.343111    -1.135379     1.281075  1.7  1.15
      2.518953    -1.235476     0.348814  1.7  1.15
      1.175601     2.227900     1.562761  1.2  1.15
      2.658280     2.161148    -0.368562  1.2  1.15
      1.841411    -0.211714    -1.425701  1.2  1.15
      3.555179    -0.016744    -1.104840  1.2  1.15
      0.043038     0.131938     2.344097  1.2  1.15
      0.931882    -2.046820     1.699547  1.2  1.15
      3.435020    -1.259975     0.954472  1.2  1.15
      2.493558    -2.175989    -0.204125  1.2  1.15

--link1--
%kjob l301
%chk=structure-1-Vc.chk
%nproc=1
%mem=1000mb
#p b3lyp 6-31g*
# scrf=(iefpcm,solvent=cyclohexane,read) nosym guess=only pop=none

title

0 1
 C    -0.941240     0.709078    -1.447500
 C    -1.130144    -0.586439    -1.688764
 H    -0.187383     1.270013    -1.985885
 H    -0.546479    -1.097826    -2.445614
 C    -2.213721    -1.349362    -0.978023
 H    -3.123677    -1.301662    -1.591424
 H    -1.953148    -2.406359    -0.901332
 C    -1.753199     1.406457    -0.450967
 H    -1.718481     2.488604    -0.416537
 C    -2.498772     0.723169     0.416199
 H    -3.072350     1.240660     1.176490
 C    -2.498247    -0.780221     0.412174
 H    -3.447477    -1.166814     0.787115
 H    -1.724665    -1.122064     1.111268
 C     2.576005    -0.058432    -0.624796
 C     2.259201     1.245519     0.052337
 C     1.443331     1.283534     1.104783
 C     0.864455     0.053379     1.642538
 C     1.343111    -1.135379     1.281075
 C     2.518953    -1.235476     0.348814
 H     1.175601     2.227900     1.562761
 H     2.658280     2.161148    -0.368562
 H     1.841411    -0.211714    -1.425701
 H     3.555179    -0.016744    -1.104840
 H     0.043038     0.131938     2.344097
 H     0.931882    -2.046820     1.699547
 H     3.435020    -1.259975     0.954472
 H     2.493558    -2.175989    -0.204125

qrep pcmdoc geomview nodis nocav g03defaults tsare=0.075
nsfe=28
nvesolv=36 solvmw=84.1595 rsolv=2.815
eps=2.0165 rhos=0.7781                  

     -0.941240     0.709078    -1.447500  1.7  1.1
     -1.130144    -0.586439    -1.688764  1.7  1.1
     -0.187383     1.270013    -1.985885  1.2  1.1
     -0.546479    -1.097826    -2.445614  1.2  1.1
     -2.213721    -1.349362    -0.978023  1.7  1.1
     -3.123677    -1.301662    -1.591424  1.2  1.1
     -1.953148    -2.406359    -0.901332  1.2  1.1
     -1.753199     1.406457    -0.450967  1.7  1.1
     -1.718481     2.488604    -0.416537  1.2  1.1
     -2.498772     0.723169     0.416199  1.7  1.1
     -3.072350     1.240660     1.176490  1.2  1.1
     -2.498247    -0.780221     0.412174  1.7  1.1
     -3.447477    -1.166814     0.787115  1.2  1.1
     -1.724665    -1.122064     1.111268  1.2  1.1
      2.576005    -0.058432    -0.624796  1.7  1.1
      2.259201     1.245519     0.052337  1.7  1.1
      1.443331     1.283534     1.104783  1.7  1.1
      0.864455     0.053379     1.642538  1.7  1.1
      1.343111    -1.135379     1.281075  1.7  1.1
      2.518953    -1.235476     0.348814  1.7  1.1
      1.175601     2.227900     1.562761  1.2  1.1
      2.658280     2.161148    -0.368562  1.2  1.1
      1.841411    -0.211714    -1.425701  1.2  1.1
      3.555179    -0.016744    -1.104840  1.2  1.1
      0.043038     0.131938     2.344097  1.2  1.1
      0.931882    -2.046820     1.699547  1.2  1.1
      3.435020    -1.259975     0.954472  1.2  1.1
      2.493558    -2.175989    -0.204125  1.2  1.1

--link1--
%kjob l301
%chk=structure-1-Vc.chk
%nproc=1
%mem=1000mb
#p b3lyp 6-31g*
# scrf=(iefpcm,solvent=cyclohexane,read) nosym guess=only pop=none

title

0 1
 C    -0.941240     0.709078    -1.447500
 C    -1.130144    -0.586439    -1.688764
 H    -0.187383     1.270013    -1.985885
 H    -0.546479    -1.097826    -2.445614
 C    -2.213721    -1.349362    -0.978023
 H    -3.123677    -1.301662    -1.591424
 H    -1.953148    -2.406359    -0.901332
 C    -1.753199     1.406457    -0.450967
 H    -1.718481     2.488604    -0.416537
 C    -2.498772     0.723169     0.416199
 H    -3.072350     1.240660     1.176490
 C    -2.498247    -0.780221     0.412174
 H    -3.447477    -1.166814     0.787115
 H    -1.724665    -1.122064     1.111268
 C     2.576005    -0.058432    -0.624796
 C     2.259201     1.245519     0.052337
 C     1.443331     1.283534     1.104783
 C     0.864455     0.053379     1.642538
 C     1.343111    -1.135379     1.281075
 C     2.518953    -1.235476     0.348814
 H     1.175601     2.227900     1.562761
 H     2.658280     2.161148    -0.368562
 H     1.841411    -0.211714    -1.425701
 H     3.555179    -0.016744    -1.104840
 H     0.043038     0.131938     2.344097
 H     0.931882    -2.046820     1.699547
 H     3.435020    -1.259975     0.954472
 H     2.493558    -2.175989    -0.204125

qrep pcmdoc geomview nodis nocav g03defaults tsare=0.075
nsfe=28
nvesolv=36 solvmw=84.1595 rsolv=2.815
eps=2.0165 rhos=0.7781                  

     -0.941240     0.709078    -1.447500  1.7  1.05
     -1.130144    -0.586439    -1.688764  1.7  1.05
     -0.187383     1.270013    -1.985885  1.2  1.05
     -0.546479    -1.097826    -2.445614  1.2  1.05
     -2.213721    -1.349362    -0.978023  1.7  1.05
     -3.123677    -1.301662    -1.591424  1.2  1.05
     -1.953148    -2.406359    -0.901332  1.2  1.05
     -1.753199     1.406457    -0.450967  1.7  1.05
     -1.718481     2.488604    -0.416537  1.2  1.05
     -2.498772     0.723169     0.416199  1.7  1.05
     -3.072350     1.240660     1.176490  1.2  1.05
     -2.498247    -0.780221     0.412174  1.7  1.05
     -3.447477    -1.166814     0.787115  1.2  1.05
     -1.724665    -1.122064     1.111268  1.2  1.05
      2.576005    -0.058432    -0.624796  1.7  1.05
      2.259201     1.245519     0.052337  1.7  1.05
      1.443331     1.283534     1.104783  1.7  1.05
      0.864455     0.053379     1.642538  1.7  1.05
      1.343111    -1.135379     1.281075  1.7  1.05
      2.518953    -1.235476     0.348814  1.7  1.05
      1.175601     2.227900     1.562761  1.2  1.05
      2.658280     2.161148    -0.368562  1.2  1.05
      1.841411    -0.211714    -1.425701  1.2  1.05
      3.555179    -0.016744    -1.104840  1.2  1.05
      0.043038     0.131938     2.344097  1.2  1.05
      0.931882    -2.046820     1.699547  1.2  1.05
      3.435020    -1.259975     0.954472  1.2  1.05
      2.493558    -2.175989    -0.204125  1.2  1.05

--link1--
%kjob l301
%chk=structure-1-Vc.chk
%nproc=1
%mem=1000mb
#p b3lyp 6-31g*
# scrf=(iefpcm,solvent=cyclohexane,read) nosym guess=only pop=none

title

0 1
 C    -0.941240     0.709078    -1.447500
 C    -1.130144    -0.586439    -1.688764
 H    -0.187383     1.270013    -1.985885
 H    -0.546479    -1.097826    -2.445614
 C    -2.213721    -1.349362    -0.978023
 H    -3.123677    -1.301662    -1.591424
 H    -1.953148    -2.406359    -0.901332
 C    -1.753199     1.406457    -0.450967
 H    -1.718481     2.488604    -0.416537
 C    -2.498772     0.723169     0.416199
 H    -3.072350     1.240660     1.176490
 C    -2.498247    -0.780221     0.412174
 H    -3.447477    -1.166814     0.787115
 H    -1.724665    -1.122064     1.111268
 C     2.576005    -0.058432    -0.624796
 C     2.259201     1.245519     0.052337
 C     1.443331     1.283534     1.104783
 C     0.864455     0.053379     1.642538
 C     1.343111    -1.135379     1.281075
 C     2.518953    -1.235476     0.348814
 H     1.175601     2.227900     1.562761
 H     2.658280     2.161148    -0.368562
 H     1.841411    -0.211714    -1.425701
 H     3.555179    -0.016744    -1.104840
 H     0.043038     0.131938     2.344097
 H     0.931882    -2.046820     1.699547
 H     3.435020    -1.259975     0.954472
 H     2.493558    -2.175989    -0.204125

qrep pcmdoc geomview nodis nocav g03defaults tsare=0.075
nsfe=28
nvesolv=36 solvmw=84.1595 rsolv=2.815
eps=2.0165 rhos=0.7781                  

     -0.941240     0.709078    -1.447500  1.7  1.0
     -1.130144    -0.586439    -1.688764  1.7  1.0
     -0.187383     1.270013    -1.985885  1.2  1.0
     -0.546479    -1.097826    -2.445614  1.2  1.0
     -2.213721    -1.349362    -0.978023  1.7  1.0
     -3.123677    -1.301662    -1.591424  1.2  1.0
     -1.953148    -2.406359    -0.901332  1.2  1.0
     -1.753199     1.406457    -0.450967  1.7  1.0
     -1.718481     2.488604    -0.416537  1.2  1.0
     -2.498772     0.723169     0.416199  1.7  1.0
     -3.072350     1.240660     1.176490  1.2  1.0
     -2.498247    -0.780221     0.412174  1.7  1.0
     -3.447477    -1.166814     0.787115  1.2  1.0
     -1.724665    -1.122064     1.111268  1.2  1.0
      2.576005    -0.058432    -0.624796  1.7  1.0
      2.259201     1.245519     0.052337  1.7  1.0
      1.443331     1.283534     1.104783  1.7  1.0
      0.864455     0.053379     1.642538  1.7  1.0
      1.343111    -1.135379     1.281075  1.7  1.0
      2.518953    -1.235476     0.348814  1.7  1.0
      1.175601     2.227900     1.562761  1.2  1.0
      2.658280     2.161148    -0.368562  1.2  1.0
      1.841411    -0.211714    -1.425701  1.2  1.0
      3.555179    -0.016744    -1.104840  1.2  1.0
      0.043038     0.131938     2.344097  1.2  1.0
      0.931882    -2.046820     1.699547  1.2  1.0
      3.435020    -1.259975     0.954472  1.2  1.0
      2.493558    -2.175989    -0.204125  1.2  1.0

--link1--
%kjob l301
%chk=structure-1-Vc.chk
%nproc=1
%mem=1000mb
#p b3lyp 6-31g*
# scrf=(iefpcm,solvent=cyclohexane,read) nosym guess=only pop=none

title

0 1
 C    -0.941240     0.709078    -1.447500
 C    -1.130144    -0.586439    -1.688764
 H    -0.187383     1.270013    -1.985885
 H    -0.546479    -1.097826    -2.445614
 C    -2.213721    -1.349362    -0.978023
 H    -3.123677    -1.301662    -1.591424
 H    -1.953148    -2.406359    -0.901332
 C    -1.753199     1.406457    -0.450967
 H    -1.718481     2.488604    -0.416537
 C    -2.498772     0.723169     0.416199
 H    -3.072350     1.240660     1.176490
 C    -2.498247    -0.780221     0.412174
 H    -3.447477    -1.166814     0.787115
 H    -1.724665    -1.122064     1.111268
 C     2.576005    -0.058432    -0.624796
 C     2.259201     1.245519     0.052337
 C     1.443331     1.283534     1.104783
 C     0.864455     0.053379     1.642538
 C     1.343111    -1.135379     1.281075
 C     2.518953    -1.235476     0.348814
 H     1.175601     2.227900     1.562761
 H     2.658280     2.161148    -0.368562
 H     1.841411    -0.211714    -1.425701
 H     3.555179    -0.016744    -1.104840
 H     0.043038     0.131938     2.344097
 H     0.931882    -2.046820     1.699547
 H     3.435020    -1.259975     0.954472
 H     2.493558    -2.175989    -0.204125

qrep pcmdoc geomview nodis nocav g03defaults tsare=0.075
nsfe=28
nvesolv=36 solvmw=84.1595 rsolv=2.815
eps=2.0165 rhos=0.7781                  

     -0.941240     0.709078    -1.447500  1.7  0.975
     -1.130144    -0.586439    -1.688764  1.7  0.975
     -0.187383     1.270013    -1.985885  1.2  0.975
     -0.546479    -1.097826    -2.445614  1.2  0.975
     -2.213721    -1.349362    -0.978023  1.7  0.975
     -3.123677    -1.301662    -1.591424  1.2  0.975
     -1.953148    -2.406359    -0.901332  1.2  0.975
     -1.753199     1.406457    -0.450967  1.7  0.975
     -1.718481     2.488604    -0.416537  1.2  0.975
     -2.498772     0.723169     0.416199  1.7  0.975
     -3.072350     1.240660     1.176490  1.2  0.975
     -2.498247    -0.780221     0.412174  1.7  0.975
     -3.447477    -1.166814     0.787115  1.2  0.975
     -1.724665    -1.122064     1.111268  1.2  0.975
      2.576005    -0.058432    -0.624796  1.7  0.975
      2.259201     1.245519     0.052337  1.7  0.975
      1.443331     1.283534     1.104783  1.7  0.975
      0.864455     0.053379     1.642538  1.7  0.975
      1.343111    -1.135379     1.281075  1.7  0.975
      2.518953    -1.235476     0.348814  1.7  0.975
      1.175601     2.227900     1.562761  1.2  0.975
      2.658280     2.161148    -0.368562  1.2  0.975
      1.841411    -0.211714    -1.425701  1.2  0.975
      3.555179    -0.016744    -1.104840  1.2  0.975
      0.043038     0.131938     2.344097  1.2  0.975
      0.931882    -2.046820     1.699547  1.2  0.975
      3.435020    -1.259975     0.954472  1.2  0.975
      2.493558    -2.175989    -0.204125  1.2  0.975

--link1--
%kjob l301
%chk=structure-1-Vc.chk
%nproc=1
%mem=1000mb
#p b3lyp 6-31g*
# scrf=(iefpcm,solvent=cyclohexane,read) nosym guess=only pop=none

title

0 1
 C    -0.941240     0.709078    -1.447500
 C    -1.130144    -0.586439    -1.688764
 H    -0.187383     1.270013    -1.985885
 H    -0.546479    -1.097826    -2.445614
 C    -2.213721    -1.349362    -0.978023
 H    -3.123677    -1.301662    -1.591424
 H    -1.953148    -2.406359    -0.901332
 C    -1.753199     1.406457    -0.450967
 H    -1.718481     2.488604    -0.416537
 C    -2.498772     0.723169     0.416199
 H    -3.072350     1.240660     1.176490
 C    -2.498247    -0.780221     0.412174
 H    -3.447477    -1.166814     0.787115
 H    -1.724665    -1.122064     1.111268
 C     2.576005    -0.058432    -0.624796
 C     2.259201     1.245519     0.052337
 C     1.443331     1.283534     1.104783
 C     0.864455     0.053379     1.642538
 C     1.343111    -1.135379     1.281075
 C     2.518953    -1.235476     0.348814
 H     1.175601     2.227900     1.562761
 H     2.658280     2.161148    -0.368562
 H     1.841411    -0.211714    -1.425701
 H     3.555179    -0.016744    -1.104840
 H     0.043038     0.131938     2.344097
 H     0.931882    -2.046820     1.699547
 H     3.435020    -1.259975     0.954472
 H     2.493558    -2.175989    -0.204125

qrep pcmdoc geomview nodis nocav g03defaults tsare=0.075
nsfe=28
nvesolv=36 solvmw=84.1595 rsolv=2.815
eps=2.0165 rhos=0.7781                  

     -0.941240     0.709078    -1.447500  1.7  0.95
     -1.130144    -0.586439    -1.688764  1.7  0.95
     -0.187383     1.270013    -1.985885  1.2  0.95
     -0.546479    -1.097826    -2.445614  1.2  0.95
     -2.213721    -1.349362    -0.978023  1.7  0.95
     -3.123677    -1.301662    -1.591424  1.2  0.95
     -1.953148    -2.406359    -0.901332  1.2  0.95
     -1.753199     1.406457    -0.450967  1.7  0.95
     -1.718481     2.488604    -0.416537  1.2  0.95
     -2.498772     0.723169     0.416199  1.7  0.95
     -3.072350     1.240660     1.176490  1.2  0.95
     -2.498247    -0.780221     0.412174  1.7  0.95
     -3.447477    -1.166814     0.787115  1.2  0.95
     -1.724665    -1.122064     1.111268  1.2  0.95
      2.576005    -0.058432    -0.624796  1.7  0.95
      2.259201     1.245519     0.052337  1.7  0.95
      1.443331     1.283534     1.104783  1.7  0.95
      0.864455     0.053379     1.642538  1.7  0.95
      1.343111    -1.135379     1.281075  1.7  0.95
      2.518953    -1.235476     0.348814  1.7  0.95
      1.175601     2.227900     1.562761  1.2  0.95
      2.658280     2.161148    -0.368562  1.2  0.95
      1.841411    -0.211714    -1.425701  1.2  0.95
      3.555179    -0.016744    -1.104840  1.2  0.95
      0.043038     0.131938     2.344097  1.2  0.95
      0.931882    -2.046820     1.699547  1.2  0.95
      3.435020    -1.259975     0.954472  1.2  0.95
      2.493558    -2.175989    -0.204125  1.2  0.95

