%kjob l301
%chk=structure-3-Gcav.chk
%nproc=24
%mem=48gb
#p b3lyp 6-31g*
# scrf=(iefpcm,solvent=cyclohexane,read) nosym guess=only pop=none

title

0 1
 C -2.454531 -0.620920 0.450078
 C -2.429115 0.860192 0.177901
 C -1.411688 1.453495 -0.452012
 C -0.144149 0.761548 -0.892337
 C -0.185628 -0.801613 -0.789740
 C -1.604183 -1.370946 -0.585116
 H -1.446210 2.528854 -0.632087
 H -3.282020 1.454343 0.503764
 H -2.092649 -0.822074 1.469083
 H -3.486923 -0.994204 0.418758
 H 0.057528 1.047828 -1.935726
 H 0.169231 -1.207683 -1.746829
 H -2.132404 -1.318363 -1.546324
 H -1.534534 -2.436262 -0.327132
 C 0.716641 -0.470708 1.551966
 C 0.862900 -1.264979 0.274427
 H 0.549920 -0.955102 2.511169
 H 0.766306 -2.343321 0.443899
 C 2.267636 -0.935217 -0.307517
 H 3.039458 -1.259338 0.398554
 H 2.424242 -1.498287 -1.236154
 C 0.843594 0.852001 1.392785
 H 0.780145 1.572240 2.204115
 C 1.068138 1.281056 -0.039061
 H 1.146978 2.369349 -0.136763
 C 2.359537 0.594607 -0.563515
 H 3.233257 1.023470 -0.061341
 H 2.472773 0.807458 -1.634143

norep pcmdoc geomview nodis cav g03defaults noaddsph tsare=0.075
nsfe=28
Vmol=108.16026217709805 rsolv=2.815

 1  2.04  1.0
 2  2.04  1.0
 3  1.44  1.0
 4  1.44  1.0
 5  2.04  1.0
 6  1.44  1.0
 7  1.44  1.0
 8  2.04  1.0
 9  1.44  1.0
 10  2.04  1.0
 11  1.44  1.0
 12  2.04  1.0
 13  1.44  1.0
 14  1.44  1.0
 15  2.04  1.0
 16  2.04  1.0
 17  2.04  1.0
 18  2.04  1.0
 19  2.04  1.0
 20  2.04  1.0
 21  1.44  1.0
 22  1.44  1.0
 23  1.44  1.0
 24  1.44  1.0
 25  1.44  1.0
 26  1.44  1.0
 27  1.44  1.0
 28  1.44  1.0

--link1--
%kjob l301
%chk=structure-3-Gcav.chk
%nproc=24
%mem=48gb
#p b3lyp 6-31g*
# scrf=(iefpcm,solvent=cyclohexane,read) nosym guess=only pop=none

title

0 1
 C -2.454531 -0.620920 0.450078
 C -2.429115 0.860192 0.177901
 C -1.411688 1.453495 -0.452012
 C -0.144149 0.761548 -0.892337
 C -0.185628 -0.801613 -0.789740
 C -1.604183 -1.370946 -0.585116
 H -1.446210 2.528854 -0.632087
 H -3.282020 1.454343 0.503764
 H -2.092649 -0.822074 1.469083
 H -3.486923 -0.994204 0.418758
 H 0.057528 1.047828 -1.935726
 H 0.169231 -1.207683 -1.746829
 H -2.132404 -1.318363 -1.546324
 H -1.534534 -2.436262 -0.327132
 C 0.716641 -0.470708 1.551966
 C 0.862900 -1.264979 0.274427
 H 0.549920 -0.955102 2.511169
 H 0.766306 -2.343321 0.443899
 C 2.267636 -0.935217 -0.307517
 H 3.039458 -1.259338 0.398554
 H 2.424242 -1.498287 -1.236154
 C 0.843594 0.852001 1.392785
 H 0.780145 1.572240 2.204115
 C 1.068138 1.281056 -0.039061
 H 1.146978 2.369349 -0.136763
 C 2.359537 0.594607 -0.563515
 H 3.233257 1.023470 -0.061341
 H 2.472773 0.807458 -1.634143

norep pcmdoc geomview nodis cav g03defaults noaddsph tsare=0.075
nsfe=28
Vmol=101.72108123654503 rsolv=2.815

 1  2.04  1.0
 2  2.04  1.0
 3  1.44  1.0
 4  1.44  1.0
 5  2.04  1.0
 6  1.44  1.0
 7  1.44  1.0
 8  2.04  1.0
 9  1.44  1.0
 10  2.04  1.0
 11  1.44  1.0
 12  2.04  1.0
 13  1.44  1.0
 14  1.44  1.0
 15  2.04  1.0
 16  2.04  1.0
 17  2.04  1.0
 18  2.04  1.0
 19  2.04  1.0
 20  2.04  1.0
 21  1.44  1.0
 22  1.44  1.0
 23  1.44  1.0
 24  1.44  1.0
 25  1.44  1.0
 26  1.44  1.0
 27  1.44  1.0
 28  1.44  1.0

--link1--
%kjob l301
%chk=structure-3-Gcav.chk
%nproc=24
%mem=48gb
#p b3lyp 6-31g*
# scrf=(iefpcm,solvent=cyclohexane,read) nosym guess=only pop=none

title

0 1
 C -2.454531 -0.620920 0.450078
 C -2.429115 0.860192 0.177901
 C -1.411688 1.453495 -0.452012
 C -0.144149 0.761548 -0.892337
 C -0.185628 -0.801613 -0.789740
 C -1.604183 -1.370946 -0.585116
 H -1.446210 2.528854 -0.632087
 H -3.282020 1.454343 0.503764
 H -2.092649 -0.822074 1.469083
 H -3.486923 -0.994204 0.418758
 H 0.057528 1.047828 -1.935726
 H 0.169231 -1.207683 -1.746829
 H -2.132404 -1.318363 -1.546324
 H -1.534534 -2.436262 -0.327132
 C 0.716641 -0.470708 1.551966
 C 0.862900 -1.264979 0.274427
 H 0.549920 -0.955102 2.511169
 H 0.766306 -2.343321 0.443899
 C 2.267636 -0.935217 -0.307517
 H 3.039458 -1.259338 0.398554
 H 2.424242 -1.498287 -1.236154
 C 0.843594 0.852001 1.392785
 H 0.780145 1.572240 2.204115
 C 1.068138 1.281056 -0.039061
 H 1.146978 2.369349 -0.136763
 C 2.359537 0.594607 -0.563515
 H 3.233257 1.023470 -0.061341
 H 2.472773 0.807458 -1.634143

norep pcmdoc geomview nodis cav g03defaults noaddsph tsare=0.075
nsfe=28
Vmol=95.79173129088203 rsolv=2.815

 1  2.04  1.0
 2  2.04  1.0
 3  1.44  1.0
 4  1.44  1.0
 5  2.04  1.0
 6  1.44  1.0
 7  1.44  1.0
 8  2.04  1.0
 9  1.44  1.0
 10  2.04  1.0
 11  1.44  1.0
 12  2.04  1.0
 13  1.44  1.0
 14  1.44  1.0
 15  2.04  1.0
 16  2.04  1.0
 17  2.04  1.0
 18  2.04  1.0
 19  2.04  1.0
 20  2.04  1.0
 21  1.44  1.0
 22  1.44  1.0
 23  1.44  1.0
 24  1.44  1.0
 25  1.44  1.0
 26  1.44  1.0
 27  1.44  1.0
 28  1.44  1.0

--link1--
%kjob l301
%chk=structure-3-Gcav.chk
%nproc=24
%mem=48gb
#p b3lyp 6-31g*
# scrf=(iefpcm,solvent=cyclohexane,read) nosym guess=only pop=none

title

0 1
 C -2.454531 -0.620920 0.450078
 C -2.429115 0.860192 0.177901
 C -1.411688 1.453495 -0.452012
 C -0.144149 0.761548 -0.892337
 C -0.185628 -0.801613 -0.789740
 C -1.604183 -1.370946 -0.585116
 H -1.446210 2.528854 -0.632087
 H -3.282020 1.454343 0.503764
 H -2.092649 -0.822074 1.469083
 H -3.486923 -0.994204 0.418758
 H 0.057528 1.047828 -1.935726
 H 0.169231 -1.207683 -1.746829
 H -2.132404 -1.318363 -1.546324
 H -1.534534 -2.436262 -0.327132
 C 0.716641 -0.470708 1.551966
 C 0.862900 -1.264979 0.274427
 H 0.549920 -0.955102 2.511169
 H 0.766306 -2.343321 0.443899
 C 2.267636 -0.935217 -0.307517
 H 3.039458 -1.259338 0.398554
 H 2.424242 -1.498287 -1.236154
 C 0.843594 0.852001 1.392785
 H 0.780145 1.572240 2.204115
 C 1.068138 1.281056 -0.039061
 H 1.146978 2.369349 -0.136763
 C 2.359537 0.594607 -0.563515
 H 3.233257 1.023470 -0.061341
 H 2.472773 0.807458 -1.634143

norep pcmdoc geomview nodis cav g03defaults noaddsph tsare=0.075
nsfe=28
Vmol=90.1033297892669 rsolv=2.815

 1  2.04  1.0
 2  2.04  1.0
 3  1.44  1.0
 4  1.44  1.0
 5  2.04  1.0
 6  1.44  1.0
 7  1.44  1.0
 8  2.04  1.0
 9  1.44  1.0
 10  2.04  1.0
 11  1.44  1.0
 12  2.04  1.0
 13  1.44  1.0
 14  1.44  1.0
 15  2.04  1.0
 16  2.04  1.0
 17  2.04  1.0
 18  2.04  1.0
 19  2.04  1.0
 20  2.04  1.0
 21  1.44  1.0
 22  1.44  1.0
 23  1.44  1.0
 24  1.44  1.0
 25  1.44  1.0
 26  1.44  1.0
 27  1.44  1.0
 28  1.44  1.0

--link1--
%kjob l301
%chk=structure-3-Gcav.chk
%nproc=24
%mem=48gb
#p b3lyp 6-31g*
# scrf=(iefpcm,solvent=cyclohexane,read) nosym guess=only pop=none

title

0 1
 C -2.454531 -0.620920 0.450078
 C -2.429115 0.860192 0.177901
 C -1.411688 1.453495 -0.452012
 C -0.144149 0.761548 -0.892337
 C -0.185628 -0.801613 -0.789740
 C -1.604183 -1.370946 -0.585116
 H -1.446210 2.528854 -0.632087
 H -3.282020 1.454343 0.503764
 H -2.092649 -0.822074 1.469083
 H -3.486923 -0.994204 0.418758
 H 0.057528 1.047828 -1.935726
 H 0.169231 -1.207683 -1.746829
 H -2.132404 -1.318363 -1.546324
 H -1.534534 -2.436262 -0.327132
 C 0.716641 -0.470708 1.551966
 C 0.862900 -1.264979 0.274427
 H 0.549920 -0.955102 2.511169
 H 0.766306 -2.343321 0.443899
 C 2.267636 -0.935217 -0.307517
 H 3.039458 -1.259338 0.398554
 H 2.424242 -1.498287 -1.236154
 C 0.843594 0.852001 1.392785
 H 0.780145 1.572240 2.204115
 C 1.068138 1.281056 -0.039061
 H 1.146978 2.369349 -0.136763
 C 2.359537 0.594607 -0.563515
 H 3.233257 1.023470 -0.061341
 H 2.472773 0.807458 -1.634143

norep pcmdoc geomview nodis cav g03defaults noaddsph tsare=0.075
nsfe=28
Vmol=84.59056472034254 rsolv=2.815

 1  2.04  1.0
 2  2.04  1.0
 3  1.44  1.0
 4  1.44  1.0
 5  2.04  1.0
 6  1.44  1.0
 7  1.44  1.0
 8  2.04  1.0
 9  1.44  1.0
 10  2.04  1.0
 11  1.44  1.0
 12  2.04  1.0
 13  1.44  1.0
 14  1.44  1.0
 15  2.04  1.0
 16  2.04  1.0
 17  2.04  1.0
 18  2.04  1.0
 19  2.04  1.0
 20  2.04  1.0
 21  1.44  1.0
 22  1.44  1.0
 23  1.44  1.0
 24  1.44  1.0
 25  1.44  1.0
 26  1.44  1.0
 27  1.44  1.0
 28  1.44  1.0

--link1--
%kjob l301
%chk=structure-3-Gcav.chk
%nproc=24
%mem=48gb
#p b3lyp 6-31g*
# scrf=(iefpcm,solvent=cyclohexane,read) nosym guess=only pop=none

title

0 1
 C -2.454531 -0.620920 0.450078
 C -2.429115 0.860192 0.177901
 C -1.411688 1.453495 -0.452012
 C -0.144149 0.761548 -0.892337
 C -0.185628 -0.801613 -0.789740
 C -1.604183 -1.370946 -0.585116
 H -1.446210 2.528854 -0.632087
 H -3.282020 1.454343 0.503764
 H -2.092649 -0.822074 1.469083
 H -3.486923 -0.994204 0.418758
 H 0.057528 1.047828 -1.935726
 H 0.169231 -1.207683 -1.746829
 H -2.132404 -1.318363 -1.546324
 H -1.534534 -2.436262 -0.327132
 C 0.716641 -0.470708 1.551966
 C 0.862900 -1.264979 0.274427
 H 0.549920 -0.955102 2.511169
 H 0.766306 -2.343321 0.443899
 C 2.267636 -0.935217 -0.307517
 H 3.039458 -1.259338 0.398554
 H 2.424242 -1.498287 -1.236154
 C 0.843594 0.852001 1.392785
 H 0.780145 1.572240 2.204115
 C 1.068138 1.281056 -0.039061
 H 1.146978 2.369349 -0.136763
 C 2.359537 0.594607 -0.563515
 H 3.233257 1.023470 -0.061341
 H 2.472773 0.807458 -1.634143

norep pcmdoc geomview nodis cav g03defaults noaddsph tsare=0.075
nsfe=28
Vmol=81.85097737242381 rsolv=2.815

 1  2.04  1.0
 2  2.04  1.0
 3  1.44  1.0
 4  1.44  1.0
 5  2.04  1.0
 6  1.44  1.0
 7  1.44  1.0
 8  2.04  1.0
 9  1.44  1.0
 10  2.04  1.0
 11  1.44  1.0
 12  2.04  1.0
 13  1.44  1.0
 14  1.44  1.0
 15  2.04  1.0
 16  2.04  1.0
 17  2.04  1.0
 18  2.04  1.0
 19  2.04  1.0
 20  2.04  1.0
 21  1.44  1.0
 22  1.44  1.0
 23  1.44  1.0
 24  1.44  1.0
 25  1.44  1.0
 26  1.44  1.0
 27  1.44  1.0
 28  1.44  1.0

--link1--
%kjob l301
%chk=structure-3-Gcav.chk
%nproc=24
%mem=48gb
#p b3lyp 6-31g*
# scrf=(iefpcm,solvent=cyclohexane,read) nosym guess=only pop=none

title

0 1
 C -2.454531 -0.620920 0.450078
 C -2.429115 0.860192 0.177901
 C -1.411688 1.453495 -0.452012
 C -0.144149 0.761548 -0.892337
 C -0.185628 -0.801613 -0.789740
 C -1.604183 -1.370946 -0.585116
 H -1.446210 2.528854 -0.632087
 H -3.282020 1.454343 0.503764
 H -2.092649 -0.822074 1.469083
 H -3.486923 -0.994204 0.418758
 H 0.057528 1.047828 -1.935726
 H 0.169231 -1.207683 -1.746829
 H -2.132404 -1.318363 -1.546324
 H -1.534534 -2.436262 -0.327132
 C 0.716641 -0.470708 1.551966
 C 0.862900 -1.264979 0.274427
 H 0.549920 -0.955102 2.511169
 H 0.766306 -2.343321 0.443899
 C 2.267636 -0.935217 -0.307517
 H 3.039458 -1.259338 0.398554
 H 2.424242 -1.498287 -1.236154
 C 0.843594 0.852001 1.392785
 H 0.780145 1.572240 2.204115
 C 1.068138 1.281056 -0.039061
 H 1.146978 2.369349 -0.136763
 C 2.359537 0.594607 -0.563515
 H 3.233257 1.023470 -0.061341
 H 2.472773 0.807458 -1.634143

norep pcmdoc geomview nodis cav g03defaults noaddsph tsare=0.075
nsfe=28
Vmol=79.24564338197861 rsolv=2.815

 1  2.04  1.0
 2  2.04  1.0
 3  1.44  1.0
 4  1.44  1.0
 5  2.04  1.0
 6  1.44  1.0
 7  1.44  1.0
 8  2.04  1.0
 9  1.44  1.0
 10  2.04  1.0
 11  1.44  1.0
 12  2.04  1.0
 13  1.44  1.0
 14  1.44  1.0
 15  2.04  1.0
 16  2.04  1.0
 17  2.04  1.0
 18  2.04  1.0
 19  2.04  1.0
 20  2.04  1.0
 21  1.44  1.0
 22  1.44  1.0
 23  1.44  1.0
 24  1.44  1.0
 25  1.44  1.0
 26  1.44  1.0
 27  1.44  1.0
 28  1.44  1.0

