%kjob l301
%chk=structure-2-Vc.chk
%nproc=1
%mem=1000mb
#p b3lyp 6-31g*
# scrf=(iefpcm,solvent=cyclohexane,read) nosym guess=only pop=none

title

0 1
 C 2.468892 0.284095 -0.708957
 C 1.667254 1.330389 0.031252
 C 1.087601 1.075991 1.256922
 C 0.689250 -0.234741 1.575517
 C 0.886557 -1.229380 0.609039
 C 2.185072 -1.148363 -0.185946
 H 0.754870 1.903944 1.878564
 H 1.804474 2.361213 -0.290944
 H 2.289282 0.358101 -1.789365
 H 3.538694 0.506111 -0.581025
 H 0.057564 -0.414132 2.441200
 H 0.559304 -2.241378 0.845590
 H 2.995597 -1.451049 0.490252
 H 2.187529 -1.871427 -1.009641
 C -0.429793 0.553269 -1.228382
 C -0.468367 -0.818307 -0.924402
 H 0.178899 0.920914 -2.045953
 H 0.039438 -1.478372 -1.626777
 C -1.793403 -1.381477 -0.412965
 H -2.433705 -1.525729 -1.296815
 H -1.657728 -2.376149 0.027843
 C -1.419929 1.435138 -0.644601
 H -1.363311 2.495516 -0.884397
 C -2.359563 1.000047 0.221263
 H -3.040678 1.712474 0.683525
 C -2.532766 -0.458144 0.574312
 H -3.601447 -0.715834 0.575953
 H -2.193607 -0.635306 1.603677

qrep pcmdoc geomview nodis nocav g03defaults tsare=0.075
nsfe=28
nvesolv=36 solvmw=84.1595 rsolv=2.815
eps=2.0165 rhos=0.7781                  

  2.468892 0.284095 -0.708957  1.7  1.2
  1.667254 1.330389 0.031252  1.7  1.2
  1.087601 1.075991 1.256922  1.2  1.2
  0.689250 -0.234741 1.575517  1.2  1.2
  0.886557 -1.229380 0.609039  1.7  1.2
  2.185072 -1.148363 -0.185946  1.2  1.2
  0.754870 1.903944 1.878564  1.2  1.2
  1.804474 2.361213 -0.290944  1.7  1.2
  2.289282 0.358101 -1.789365  1.2  1.2
  3.538694 0.506111 -0.581025  1.7  1.2
  0.057564 -0.414132 2.441200  1.2  1.2
  0.559304 -2.241378 0.845590  1.7  1.2
  2.995597 -1.451049 0.490252  1.2  1.2
  2.187529 -1.871427 -1.009641  1.2  1.2
  -0.429793 0.553269 -1.228382  1.7  1.2
  -0.468367 -0.818307 -0.924402  1.7  1.2
  0.178899 0.920914 -2.045953  1.7  1.2
  0.039438 -1.478372 -1.626777  1.7  1.2
  -1.793403 -1.381477 -0.412965  1.7  1.2
  -2.433705 -1.525729 -1.296815  1.7  1.2
  -1.657728 -2.376149 0.027843  1.2  1.2
  -1.419929 1.435138 -0.644601  1.2  1.2
  -1.363311 2.495516 -0.884397  1.2  1.2
  -2.359563 1.000047 0.221263  1.2  1.2
  -3.040678 1.712474 0.683525  1.2  1.2
  -2.532766 -0.458144 0.574312  1.2  1.2
  -3.601447 -0.715834 0.575953  1.2  1.2
  -2.193607 -0.635306 1.603677  1.2  1.2

--link1--
%kjob l301
%chk=structure-2-Vc.chk
%nproc=1
%mem=1000mb
#p b3lyp 6-31g*
# scrf=(iefpcm,solvent=cyclohexane,read) nosym guess=only pop=none

title

0 1
 C 2.468892 0.284095 -0.708957
 C 1.667254 1.330389 0.031252
 C 1.087601 1.075991 1.256922
 C 0.689250 -0.234741 1.575517
 C 0.886557 -1.229380 0.609039
 C 2.185072 -1.148363 -0.185946
 H 0.754870 1.903944 1.878564
 H 1.804474 2.361213 -0.290944
 H 2.289282 0.358101 -1.789365
 H 3.538694 0.506111 -0.581025
 H 0.057564 -0.414132 2.441200
 H 0.559304 -2.241378 0.845590
 H 2.995597 -1.451049 0.490252
 H 2.187529 -1.871427 -1.009641
 C -0.429793 0.553269 -1.228382
 C -0.468367 -0.818307 -0.924402
 H 0.178899 0.920914 -2.045953
 H 0.039438 -1.478372 -1.626777
 C -1.793403 -1.381477 -0.412965
 H -2.433705 -1.525729 -1.296815
 H -1.657728 -2.376149 0.027843
 C -1.419929 1.435138 -0.644601
 H -1.363311 2.495516 -0.884397
 C -2.359563 1.000047 0.221263
 H -3.040678 1.712474 0.683525
 C -2.532766 -0.458144 0.574312
 H -3.601447 -0.715834 0.575953
 H -2.193607 -0.635306 1.603677

qrep pcmdoc geomview nodis nocav g03defaults tsare=0.075
nsfe=28
nvesolv=36 solvmw=84.1595 rsolv=2.815
eps=2.0165 rhos=0.7781                  

  2.468892 0.284095 -0.708957  1.7  1.15
  1.667254 1.330389 0.031252  1.7  1.15
  1.087601 1.075991 1.256922  1.2  1.15
  0.689250 -0.234741 1.575517  1.2  1.15
  0.886557 -1.229380 0.609039  1.7  1.15
  2.185072 -1.148363 -0.185946  1.2  1.15
  0.754870 1.903944 1.878564  1.2  1.15
  1.804474 2.361213 -0.290944  1.7  1.15
  2.289282 0.358101 -1.789365  1.2  1.15
  3.538694 0.506111 -0.581025  1.7  1.15
  0.057564 -0.414132 2.441200  1.2  1.15
  0.559304 -2.241378 0.845590  1.7  1.15
  2.995597 -1.451049 0.490252  1.2  1.15
  2.187529 -1.871427 -1.009641  1.2  1.15
  -0.429793 0.553269 -1.228382  1.7  1.15
  -0.468367 -0.818307 -0.924402  1.7  1.15
  0.178899 0.920914 -2.045953  1.7  1.15
  0.039438 -1.478372 -1.626777  1.7  1.15
  -1.793403 -1.381477 -0.412965  1.7  1.15
  -2.433705 -1.525729 -1.296815  1.7  1.15
  -1.657728 -2.376149 0.027843  1.2  1.15
  -1.419929 1.435138 -0.644601  1.2  1.15
  -1.363311 2.495516 -0.884397  1.2  1.15
  -2.359563 1.000047 0.221263  1.2  1.15
  -3.040678 1.712474 0.683525  1.2  1.15
  -2.532766 -0.458144 0.574312  1.2  1.15
  -3.601447 -0.715834 0.575953  1.2  1.15
  -2.193607 -0.635306 1.603677  1.2  1.15

--link1--
%kjob l301
%chk=structure-2-Vc.chk
%nproc=1
%mem=1000mb
#p b3lyp 6-31g*
# scrf=(iefpcm,solvent=cyclohexane,read) nosym guess=only pop=none

title

0 1
 C 2.468892 0.284095 -0.708957
 C 1.667254 1.330389 0.031252
 C 1.087601 1.075991 1.256922
 C 0.689250 -0.234741 1.575517
 C 0.886557 -1.229380 0.609039
 C 2.185072 -1.148363 -0.185946
 H 0.754870 1.903944 1.878564
 H 1.804474 2.361213 -0.290944
 H 2.289282 0.358101 -1.789365
 H 3.538694 0.506111 -0.581025
 H 0.057564 -0.414132 2.441200
 H 0.559304 -2.241378 0.845590
 H 2.995597 -1.451049 0.490252
 H 2.187529 -1.871427 -1.009641
 C -0.429793 0.553269 -1.228382
 C -0.468367 -0.818307 -0.924402
 H 0.178899 0.920914 -2.045953
 H 0.039438 -1.478372 -1.626777
 C -1.793403 -1.381477 -0.412965
 H -2.433705 -1.525729 -1.296815
 H -1.657728 -2.376149 0.027843
 C -1.419929 1.435138 -0.644601
 H -1.363311 2.495516 -0.884397
 C -2.359563 1.000047 0.221263
 H -3.040678 1.712474 0.683525
 C -2.532766 -0.458144 0.574312
 H -3.601447 -0.715834 0.575953
 H -2.193607 -0.635306 1.603677

qrep pcmdoc geomview nodis nocav g03defaults tsare=0.075
nsfe=28
nvesolv=36 solvmw=84.1595 rsolv=2.815
eps=2.0165 rhos=0.7781                  

  2.468892 0.284095 -0.708957  1.7  1.1
  1.667254 1.330389 0.031252  1.7  1.1
  1.087601 1.075991 1.256922  1.2  1.1
  0.689250 -0.234741 1.575517  1.2  1.1
  0.886557 -1.229380 0.609039  1.7  1.1
  2.185072 -1.148363 -0.185946  1.2  1.1
  0.754870 1.903944 1.878564  1.2  1.1
  1.804474 2.361213 -0.290944  1.7  1.1
  2.289282 0.358101 -1.789365  1.2  1.1
  3.538694 0.506111 -0.581025  1.7  1.1
  0.057564 -0.414132 2.441200  1.2  1.1
  0.559304 -2.241378 0.845590  1.7  1.1
  2.995597 -1.451049 0.490252  1.2  1.1
  2.187529 -1.871427 -1.009641  1.2  1.1
  -0.429793 0.553269 -1.228382  1.7  1.1
  -0.468367 -0.818307 -0.924402  1.7  1.1
  0.178899 0.920914 -2.045953  1.7  1.1
  0.039438 -1.478372 -1.626777  1.7  1.1
  -1.793403 -1.381477 -0.412965  1.7  1.1
  -2.433705 -1.525729 -1.296815  1.7  1.1
  -1.657728 -2.376149 0.027843  1.2  1.1
  -1.419929 1.435138 -0.644601  1.2  1.1
  -1.363311 2.495516 -0.884397  1.2  1.1
  -2.359563 1.000047 0.221263  1.2  1.1
  -3.040678 1.712474 0.683525  1.2  1.1
  -2.532766 -0.458144 0.574312  1.2  1.1
  -3.601447 -0.715834 0.575953  1.2  1.1
  -2.193607 -0.635306 1.603677  1.2  1.1

--link1--
%kjob l301
%chk=structure-2-Vc.chk
%nproc=1
%mem=1000mb
#p b3lyp 6-31g*
# scrf=(iefpcm,solvent=cyclohexane,read) nosym guess=only pop=none

title

0 1
 C 2.468892 0.284095 -0.708957
 C 1.667254 1.330389 0.031252
 C 1.087601 1.075991 1.256922
 C 0.689250 -0.234741 1.575517
 C 0.886557 -1.229380 0.609039
 C 2.185072 -1.148363 -0.185946
 H 0.754870 1.903944 1.878564
 H 1.804474 2.361213 -0.290944
 H 2.289282 0.358101 -1.789365
 H 3.538694 0.506111 -0.581025
 H 0.057564 -0.414132 2.441200
 H 0.559304 -2.241378 0.845590
 H 2.995597 -1.451049 0.490252
 H 2.187529 -1.871427 -1.009641
 C -0.429793 0.553269 -1.228382
 C -0.468367 -0.818307 -0.924402
 H 0.178899 0.920914 -2.045953
 H 0.039438 -1.478372 -1.626777
 C -1.793403 -1.381477 -0.412965
 H -2.433705 -1.525729 -1.296815
 H -1.657728 -2.376149 0.027843
 C -1.419929 1.435138 -0.644601
 H -1.363311 2.495516 -0.884397
 C -2.359563 1.000047 0.221263
 H -3.040678 1.712474 0.683525
 C -2.532766 -0.458144 0.574312
 H -3.601447 -0.715834 0.575953
 H -2.193607 -0.635306 1.603677

qrep pcmdoc geomview nodis nocav g03defaults tsare=0.075
nsfe=28
nvesolv=36 solvmw=84.1595 rsolv=2.815
eps=2.0165 rhos=0.7781                  

  2.468892 0.284095 -0.708957  1.7  1.05
  1.667254 1.330389 0.031252  1.7  1.05
  1.087601 1.075991 1.256922  1.2  1.05
  0.689250 -0.234741 1.575517  1.2  1.05
  0.886557 -1.229380 0.609039  1.7  1.05
  2.185072 -1.148363 -0.185946  1.2  1.05
  0.754870 1.903944 1.878564  1.2  1.05
  1.804474 2.361213 -0.290944  1.7  1.05
  2.289282 0.358101 -1.789365  1.2  1.05
  3.538694 0.506111 -0.581025  1.7  1.05
  0.057564 -0.414132 2.441200  1.2  1.05
  0.559304 -2.241378 0.845590  1.7  1.05
  2.995597 -1.451049 0.490252  1.2  1.05
  2.187529 -1.871427 -1.009641  1.2  1.05
  -0.429793 0.553269 -1.228382  1.7  1.05
  -0.468367 -0.818307 -0.924402  1.7  1.05
  0.178899 0.920914 -2.045953  1.7  1.05
  0.039438 -1.478372 -1.626777  1.7  1.05
  -1.793403 -1.381477 -0.412965  1.7  1.05
  -2.433705 -1.525729 -1.296815  1.7  1.05
  -1.657728 -2.376149 0.027843  1.2  1.05
  -1.419929 1.435138 -0.644601  1.2  1.05
  -1.363311 2.495516 -0.884397  1.2  1.05
  -2.359563 1.000047 0.221263  1.2  1.05
  -3.040678 1.712474 0.683525  1.2  1.05
  -2.532766 -0.458144 0.574312  1.2  1.05
  -3.601447 -0.715834 0.575953  1.2  1.05
  -2.193607 -0.635306 1.603677  1.2  1.05

--link1--
%kjob l301
%chk=structure-2-Vc.chk
%nproc=1
%mem=1000mb
#p b3lyp 6-31g*
# scrf=(iefpcm,solvent=cyclohexane,read) nosym guess=only pop=none

title

0 1
 C 2.468892 0.284095 -0.708957
 C 1.667254 1.330389 0.031252
 C 1.087601 1.075991 1.256922
 C 0.689250 -0.234741 1.575517
 C 0.886557 -1.229380 0.609039
 C 2.185072 -1.148363 -0.185946
 H 0.754870 1.903944 1.878564
 H 1.804474 2.361213 -0.290944
 H 2.289282 0.358101 -1.789365
 H 3.538694 0.506111 -0.581025
 H 0.057564 -0.414132 2.441200
 H 0.559304 -2.241378 0.845590
 H 2.995597 -1.451049 0.490252
 H 2.187529 -1.871427 -1.009641
 C -0.429793 0.553269 -1.228382
 C -0.468367 -0.818307 -0.924402
 H 0.178899 0.920914 -2.045953
 H 0.039438 -1.478372 -1.626777
 C -1.793403 -1.381477 -0.412965
 H -2.433705 -1.525729 -1.296815
 H -1.657728 -2.376149 0.027843
 C -1.419929 1.435138 -0.644601
 H -1.363311 2.495516 -0.884397
 C -2.359563 1.000047 0.221263
 H -3.040678 1.712474 0.683525
 C -2.532766 -0.458144 0.574312
 H -3.601447 -0.715834 0.575953
 H -2.193607 -0.635306 1.603677

qrep pcmdoc geomview nodis nocav g03defaults tsare=0.075
nsfe=28
nvesolv=36 solvmw=84.1595 rsolv=2.815
eps=2.0165 rhos=0.7781                  

  2.468892 0.284095 -0.708957  1.7  1.0
  1.667254 1.330389 0.031252  1.7  1.0
  1.087601 1.075991 1.256922  1.2  1.0
  0.689250 -0.234741 1.575517  1.2  1.0
  0.886557 -1.229380 0.609039  1.7  1.0
  2.185072 -1.148363 -0.185946  1.2  1.0
  0.754870 1.903944 1.878564  1.2  1.0
  1.804474 2.361213 -0.290944  1.7  1.0
  2.289282 0.358101 -1.789365  1.2  1.0
  3.538694 0.506111 -0.581025  1.7  1.0
  0.057564 -0.414132 2.441200  1.2  1.0
  0.559304 -2.241378 0.845590  1.7  1.0
  2.995597 -1.451049 0.490252  1.2  1.0
  2.187529 -1.871427 -1.009641  1.2  1.0
  -0.429793 0.553269 -1.228382  1.7  1.0
  -0.468367 -0.818307 -0.924402  1.7  1.0
  0.178899 0.920914 -2.045953  1.7  1.0
  0.039438 -1.478372 -1.626777  1.7  1.0
  -1.793403 -1.381477 -0.412965  1.7  1.0
  -2.433705 -1.525729 -1.296815  1.7  1.0
  -1.657728 -2.376149 0.027843  1.2  1.0
  -1.419929 1.435138 -0.644601  1.2  1.0
  -1.363311 2.495516 -0.884397  1.2  1.0
  -2.359563 1.000047 0.221263  1.2  1.0
  -3.040678 1.712474 0.683525  1.2  1.0
  -2.532766 -0.458144 0.574312  1.2  1.0
  -3.601447 -0.715834 0.575953  1.2  1.0
  -2.193607 -0.635306 1.603677  1.2  1.0

--link1--
%kjob l301
%chk=structure-2-Vc.chk
%nproc=1
%mem=1000mb
#p b3lyp 6-31g*
# scrf=(iefpcm,solvent=cyclohexane,read) nosym guess=only pop=none

title

0 1
 C 2.468892 0.284095 -0.708957
 C 1.667254 1.330389 0.031252
 C 1.087601 1.075991 1.256922
 C 0.689250 -0.234741 1.575517
 C 0.886557 -1.229380 0.609039
 C 2.185072 -1.148363 -0.185946
 H 0.754870 1.903944 1.878564
 H 1.804474 2.361213 -0.290944
 H 2.289282 0.358101 -1.789365
 H 3.538694 0.506111 -0.581025
 H 0.057564 -0.414132 2.441200
 H 0.559304 -2.241378 0.845590
 H 2.995597 -1.451049 0.490252
 H 2.187529 -1.871427 -1.009641
 C -0.429793 0.553269 -1.228382
 C -0.468367 -0.818307 -0.924402
 H 0.178899 0.920914 -2.045953
 H 0.039438 -1.478372 -1.626777
 C -1.793403 -1.381477 -0.412965
 H -2.433705 -1.525729 -1.296815
 H -1.657728 -2.376149 0.027843
 C -1.419929 1.435138 -0.644601
 H -1.363311 2.495516 -0.884397
 C -2.359563 1.000047 0.221263
 H -3.040678 1.712474 0.683525
 C -2.532766 -0.458144 0.574312
 H -3.601447 -0.715834 0.575953
 H -2.193607 -0.635306 1.603677

qrep pcmdoc geomview nodis nocav g03defaults tsare=0.075
nsfe=28
nvesolv=36 solvmw=84.1595 rsolv=2.815
eps=2.0165 rhos=0.7781                  

  2.468892 0.284095 -0.708957  1.7  0.975
  1.667254 1.330389 0.031252  1.7  0.975
  1.087601 1.075991 1.256922  1.2  0.975
  0.689250 -0.234741 1.575517  1.2  0.975
  0.886557 -1.229380 0.609039  1.7  0.975
  2.185072 -1.148363 -0.185946  1.2  0.975
  0.754870 1.903944 1.878564  1.2  0.975
  1.804474 2.361213 -0.290944  1.7  0.975
  2.289282 0.358101 -1.789365  1.2  0.975
  3.538694 0.506111 -0.581025  1.7  0.975
  0.057564 -0.414132 2.441200  1.2  0.975
  0.559304 -2.241378 0.845590  1.7  0.975
  2.995597 -1.451049 0.490252  1.2  0.975
  2.187529 -1.871427 -1.009641  1.2  0.975
  -0.429793 0.553269 -1.228382  1.7  0.975
  -0.468367 -0.818307 -0.924402  1.7  0.975
  0.178899 0.920914 -2.045953  1.7  0.975
  0.039438 -1.478372 -1.626777  1.7  0.975
  -1.793403 -1.381477 -0.412965  1.7  0.975
  -2.433705 -1.525729 -1.296815  1.7  0.975
  -1.657728 -2.376149 0.027843  1.2  0.975
  -1.419929 1.435138 -0.644601  1.2  0.975
  -1.363311 2.495516 -0.884397  1.2  0.975
  -2.359563 1.000047 0.221263  1.2  0.975
  -3.040678 1.712474 0.683525  1.2  0.975
  -2.532766 -0.458144 0.574312  1.2  0.975
  -3.601447 -0.715834 0.575953  1.2  0.975
  -2.193607 -0.635306 1.603677  1.2  0.975

--link1--
%kjob l301
%chk=structure-2-Vc.chk
%nproc=1
%mem=1000mb
#p b3lyp 6-31g*
# scrf=(iefpcm,solvent=cyclohexane,read) nosym guess=only pop=none

title

0 1
 C 2.468892 0.284095 -0.708957
 C 1.667254 1.330389 0.031252
 C 1.087601 1.075991 1.256922
 C 0.689250 -0.234741 1.575517
 C 0.886557 -1.229380 0.609039
 C 2.185072 -1.148363 -0.185946
 H 0.754870 1.903944 1.878564
 H 1.804474 2.361213 -0.290944
 H 2.289282 0.358101 -1.789365
 H 3.538694 0.506111 -0.581025
 H 0.057564 -0.414132 2.441200
 H 0.559304 -2.241378 0.845590
 H 2.995597 -1.451049 0.490252
 H 2.187529 -1.871427 -1.009641
 C -0.429793 0.553269 -1.228382
 C -0.468367 -0.818307 -0.924402
 H 0.178899 0.920914 -2.045953
 H 0.039438 -1.478372 -1.626777
 C -1.793403 -1.381477 -0.412965
 H -2.433705 -1.525729 -1.296815
 H -1.657728 -2.376149 0.027843
 C -1.419929 1.435138 -0.644601
 H -1.363311 2.495516 -0.884397
 C -2.359563 1.000047 0.221263
 H -3.040678 1.712474 0.683525
 C -2.532766 -0.458144 0.574312
 H -3.601447 -0.715834 0.575953
 H -2.193607 -0.635306 1.603677

qrep pcmdoc geomview nodis nocav g03defaults tsare=0.075
nsfe=28
nvesolv=36 solvmw=84.1595 rsolv=2.815
eps=2.0165 rhos=0.7781                  

  2.468892 0.284095 -0.708957  1.7  0.95
  1.667254 1.330389 0.031252  1.7  0.95
  1.087601 1.075991 1.256922  1.2  0.95
  0.689250 -0.234741 1.575517  1.2  0.95
  0.886557 -1.229380 0.609039  1.7  0.95
  2.185072 -1.148363 -0.185946  1.2  0.95
  0.754870 1.903944 1.878564  1.2  0.95
  1.804474 2.361213 -0.290944  1.7  0.95
  2.289282 0.358101 -1.789365  1.2  0.95
  3.538694 0.506111 -0.581025  1.7  0.95
  0.057564 -0.414132 2.441200  1.2  0.95
  0.559304 -2.241378 0.845590  1.7  0.95
  2.995597 -1.451049 0.490252  1.2  0.95
  2.187529 -1.871427 -1.009641  1.2  0.95
  -0.429793 0.553269 -1.228382  1.7  0.95
  -0.468367 -0.818307 -0.924402  1.7  0.95
  0.178899 0.920914 -2.045953  1.7  0.95
  0.039438 -1.478372 -1.626777  1.7  0.95
  -1.793403 -1.381477 -0.412965  1.7  0.95
  -2.433705 -1.525729 -1.296815  1.7  0.95
  -1.657728 -2.376149 0.027843  1.2  0.95
  -1.419929 1.435138 -0.644601  1.2  0.95
  -1.363311 2.495516 -0.884397  1.2  0.95
  -2.359563 1.000047 0.221263  1.2  0.95
  -3.040678 1.712474 0.683525  1.2  0.95
  -2.532766 -0.458144 0.574312  1.2  0.95
  -3.601447 -0.715834 0.575953  1.2  0.95
  -2.193607 -0.635306 1.603677  1.2  0.95

