%chk=1b_xp-12.chk
%nproc=6
#p b3lyp/6-31g(d) 
# scrf=(iefpcm,solvent=Cyclohexane,read) nosym 

Cycloexadiene, E(B3LYP/6-31G*)
xp-pcm for eta=3

0 1
 C                  0.13841300   -1.43021100   -0.00014400
 C                 -1.22553800   -0.78008000    0.00040700
 C                 -1.22554100    0.78007700   -0.00040500
 C                  0.13841000    1.43021200    0.00013500
 C                  1.28267300    0.73359900    0.00019200
 C                  1.28267500   -0.73359600   -0.00018600
 H                  0.15722500   -2.51872300   -0.00033200
 H                 -1.78585100   -1.15298200   -0.86886100
 H                 -1.78469700    1.15213700   -0.87079500
 H                  0.15721900    2.51872400    0.00030200
 H                  2.24003500    1.24959800    0.00046000
 H                  2.24003700   -1.24959400   -0.00045400
 H                 -1.78584000    1.15297200    0.86887600
 H                 -1.78468100   -1.15213600    0.87080800         

qrep pcmdoc geomview  nodis nocav g03defaults tsare=0.075 
nsfe=14
NVESolv=36  SolvMW=84.1595   Rsolv=2.815 
eps=2.0165 RhoS=0.7781

    0.138413    -1.430211    -0.000144     1.700000     1.200000
   -1.225538    -0.780080     0.000407     1.700000     1.200000
   -1.225541     0.780077    -0.000405     1.700000     1.200000
    0.138410     1.430212     0.000135     1.700000     1.200000
    1.282673     0.733599     0.000192     1.700000     1.200000
    1.282675    -0.733596    -0.000186     1.700000     1.200000
    0.157225    -2.518723    -0.000332     1.200000     1.200000
   -1.785851    -1.152982    -0.868861     1.200000     1.200000
   -1.784697     1.152137    -0.870795     1.200000     1.200000
    0.157219     2.518724     0.000302     1.200000     1.200000
    2.240035     1.249598     0.000460     1.200000     1.200000
    2.240037    -1.249594    -0.000454     1.200000     1.200000
   -1.785840     1.152972     0.868876     1.200000     1.200000
   -1.784681    -1.152136     0.870808     1.200000     1.200000

--link1--

%chk=1b_xp-115.chk
%nproc=6
#p b3lyp/6-31g(d) 
# scrf=(iefpcm,solvent=Cyclohexane,read) nosym 

Cycloexadiene, E(B3LYP/6-31G*)
xp-pcm for eta=3

0 1
 C                  0.13841300   -1.43021100   -0.00014400
 C                 -1.22553800   -0.78008000    0.00040700
 C                 -1.22554100    0.78007700   -0.00040500
 C                  0.13841000    1.43021200    0.00013500
 C                  1.28267300    0.73359900    0.00019200
 C                  1.28267500   -0.73359600   -0.00018600
 H                  0.15722500   -2.51872300   -0.00033200
 H                 -1.78585100   -1.15298200   -0.86886100
 H                 -1.78469700    1.15213700   -0.87079500
 H                  0.15721900    2.51872400    0.00030200
 H                  2.24003500    1.24959800    0.00046000
 H                  2.24003700   -1.24959400   -0.00045400
 H                 -1.78584000    1.15297200    0.86887600
 H                 -1.78468100   -1.15213600    0.87080800         

qrep pcmdoc geomview  nodis nocav g03defaults tsare=0.075 
nsfe=14
NVESolv=36  SolvMW=84.1595   Rsolv=2.815 
eps=2.08767670941439 RhoS=0.890882252660888

    0.138413    -1.430211    -0.000144     1.700000     1.150000
   -1.225538    -0.780080     0.000407     1.700000     1.150000
   -1.225541     0.780077    -0.000405     1.700000     1.150000
    0.138410     1.430212     0.000135     1.700000     1.150000
    1.282673     0.733599     0.000192     1.700000     1.150000
    1.282675    -0.733596    -0.000186     1.700000     1.150000
    0.157225    -2.518723    -0.000332     1.200000     1.150000
   -1.785851    -1.152982    -0.868861     1.200000     1.150000
   -1.784697     1.152137    -0.870795     1.200000     1.150000
    0.157219     2.518724     0.000302     1.200000     1.150000
    2.240035     1.249598     0.000460     1.200000     1.150000
    2.240037    -1.249594    -0.000454     1.200000     1.150000
   -1.785840     1.152972     0.868876     1.200000     1.150000
   -1.784681    -1.152136     0.870808     1.200000     1.150000

--link1--

%chk=1b_xp-110.chk
%nproc=6
#p b3lyp/6-31g(d) 
# scrf=(iefpcm,solvent=Cyclohexane,read) nosym 

Cycloexadiene, E(B3LYP/6-31G*)
xp-pcm for eta=3

0 1
 C                  0.13841300   -1.43021100   -0.00014400
 C                 -1.22553800   -0.78008000    0.00040700
 C                 -1.22554100    0.78007700   -0.00040500
 C                  0.13841000    1.43021200    0.00013500
 C                  1.28267300    0.73359900    0.00019200
 C                  1.28267500   -0.73359600   -0.00018600
 H                  0.15722500   -2.51872300   -0.00033200
 H                 -1.78585100   -1.15298200   -0.86886100
 H                 -1.78469700    1.15213700   -0.87079500
 H                  0.15721900    2.51872400    0.00030200
 H                  2.24003500    1.24959800    0.00046000
 H                  2.24003700   -1.24959400   -0.00045400
 H                 -1.78584000    1.15297200    0.86887600
 H                 -1.78468100   -1.15213600    0.87080800         

qrep pcmdoc geomview  nodis nocav g03defaults tsare=0.075 
nsfe=14
NVESolv=36  SolvMW=84.1595   Rsolv=2.815 
eps=2.16165184581093 RhoS=1.01618463281345

    0.138413    -1.430211    -0.000144     1.700000     1.100000
   -1.225538    -0.780080     0.000407     1.700000     1.100000
   -1.225541     0.780077    -0.000405     1.700000     1.100000
    0.138410     1.430212     0.000135     1.700000     1.100000
    1.282673     0.733599     0.000192     1.700000     1.100000
    1.282675    -0.733596    -0.000186     1.700000     1.100000
    0.157225    -2.518723    -0.000332     1.200000     1.100000
   -1.785851    -1.152982    -0.868861     1.200000     1.100000
   -1.784697     1.152137    -0.870795     1.200000     1.100000
    0.157219     2.518724     0.000302     1.200000     1.100000
    2.240035     1.249598     0.000460     1.200000     1.100000
    2.240037    -1.249594    -0.000454     1.200000     1.100000
   -1.785840     1.152972     0.868876     1.200000     1.100000
   -1.784681    -1.152136     0.870808     1.200000     1.100000

--link1--

%chk=1b_xp-105.chk
%nproc=6
#p b3lyp/6-31g(d) 
# scrf=(iefpcm,solvent=Cyclohexane,read) nosym 

Cycloexadiene, E(B3LYP/6-31G*)
xp-pcm for eta=3

0 1
 C                  0.13841300   -1.43021100   -0.00014400
 C                 -1.22553800   -0.78008000    0.00040700
 C                 -1.22554100    0.78007700   -0.00040500
 C                  0.13841000    1.43021200    0.00013500
 C                  1.28267300    0.73359900    0.00019200
 C                  1.28267500   -0.73359600   -0.00018600
 H                  0.15722500   -2.51872300   -0.00033200
 H                 -1.78585100   -1.15298200   -0.86886100
 H                 -1.78469700    1.15213700   -0.87079500
 H                  0.15721900    2.51872400    0.00030200
 H                  2.24003500    1.24959800    0.00046000
 H                  2.24003700   -1.24959400   -0.00045400
 H                 -1.78584000    1.15297200    0.86887600
 H                 -1.78468100   -1.15213600    0.87080800         

qrep pcmdoc geomview  nodis nocav g03defaults tsare=0.075 
nsfe=14
NVESolv=36  SolvMW=84.1595   Rsolv=2.815 
eps=2.24140019241358 RhoS=1.16049765199193

    0.138413    -1.430211    -0.000144     1.700000     1.050000
   -1.225538    -0.780080     0.000407     1.700000     1.050000
   -1.225541     0.780077    -0.000405     1.700000     1.050000
    0.138410     1.430212     0.000135     1.700000     1.050000
    1.282673     0.733599     0.000192     1.700000     1.050000
    1.282675    -0.733596    -0.000186     1.700000     1.050000
    0.157225    -2.518723    -0.000332     1.200000     1.050000
   -1.785851    -1.152982    -0.868861     1.200000     1.050000
   -1.784697     1.152137    -0.870795     1.200000     1.050000
    0.157219     2.518724     0.000302     1.200000     1.050000
    2.240035     1.249598     0.000460     1.200000     1.050000
    2.240037    -1.249594    -0.000454     1.200000     1.050000
   -1.785840     1.152972     0.868876     1.200000     1.050000
   -1.784681    -1.152136     0.870808     1.200000     1.050000

--link1--

%chk=1b_xp-100.chk
%nproc=6
#p b3lyp/6-31g(d) 
# scrf=(iefpcm,solvent=Cyclohexane,read) nosym 

Cycloexadiene, E(B3LYP/6-31G*)
xp-pcm for eta=3

0 1
 C                  0.13841300   -1.43021100   -0.00014400
 C                 -1.22553800   -0.78008000    0.00040700
 C                 -1.22554100    0.78007700   -0.00040500
 C                  0.13841000    1.43021200    0.00013500
 C                  1.28267300    0.73359900    0.00019200
 C                  1.28267500   -0.73359600   -0.00018600
 H                  0.15722500   -2.51872300   -0.00033200
 H                 -1.78585100   -1.15298200   -0.86886100
 H                 -1.78469700    1.15213700   -0.87079500
 H                  0.15721900    2.51872400    0.00030200
 H                  2.24003500    1.24959800    0.00046000
 H                  2.24003700   -1.24959400   -0.00045400
 H                 -1.78584000    1.15297200    0.86887600
 H                 -1.78468100   -1.15213600    0.87080800         

qrep pcmdoc geomview  nodis nocav g03defaults tsare=0.075 
nsfe=14
NVESolv=36  SolvMW=84.1595   Rsolv=2.815 
eps=2.32955882151419 RhoS=1.33117686460843

    0.138413    -1.430211    -0.000144     1.700000     1.000000
   -1.225538    -0.780080     0.000407     1.700000     1.000000
   -1.225541     0.780077    -0.000405     1.700000     1.000000
    0.138410     1.430212     0.000135     1.700000     1.000000
    1.282673     0.733599     0.000192     1.700000     1.000000
    1.282675    -0.733596    -0.000186     1.700000     1.000000
    0.157225    -2.518723    -0.000332     1.200000     1.000000
   -1.785851    -1.152982    -0.868861     1.200000     1.000000
   -1.784697     1.152137    -0.870795     1.200000     1.000000
    0.157219     2.518724     0.000302     1.200000     1.000000
    2.240035     1.249598     0.000460     1.200000     1.000000
    2.240037    -1.249594    -0.000454     1.200000     1.000000
   -1.785840     1.152972     0.868876     1.200000     1.000000
   -1.784681    -1.152136     0.870808     1.200000     1.000000

--link1--

%chk=1b_xp-0975.chk
%nproc=6
#p b3lyp/6-31g(d) 
# scrf=(iefpcm,solvent=Cyclohexane,read) nosym 

Cycloexadiene, E(B3LYP/6-31G*)
xp-pcm for eta=3

0 1
 C                  0.13841300   -1.43021100   -0.00014400
 C                 -1.22553800   -0.78008000    0.00040700
 C                 -1.22554100    0.78007700   -0.00040500
 C                  0.13841000    1.43021200    0.00013500
 C                  1.28267300    0.73359900    0.00019200
 C                  1.28267500   -0.73359600   -0.00018600
 H                  0.15722500   -2.51872300   -0.00033200
 H                 -1.78585100   -1.15298200   -0.86886100
 H                 -1.78469700    1.15213700   -0.87079500
 H                  0.15721900    2.51872400    0.00030200
 H                  2.24003500    1.24959800    0.00046000
 H                  2.24003700   -1.24959400   -0.00045400
 H                 -1.78584000    1.15297200    0.86887600
 H                 -1.78468100   -1.15213600    0.87080800         

qrep pcmdoc geomview  nodis nocav g03defaults tsare=0.075 
nsfe=14
NVESolv=36  SolvMW=84.1595   Rsolv=2.815 
eps=2.37966645410351 RhoS=1.43340481472775

    0.138413    -1.430211    -0.000144     1.700000     0.975000
   -1.225538    -0.780080     0.000407     1.700000     0.975000
   -1.225541     0.780077    -0.000405     1.700000     0.975000
    0.138410     1.430212     0.000135     1.700000     0.975000
    1.282673     0.733599     0.000192     1.700000     0.975000
    1.282675    -0.733596    -0.000186     1.700000     0.975000
    0.157225    -2.518723    -0.000332     1.200000     0.975000
   -1.785851    -1.152982    -0.868861     1.200000     0.975000
   -1.784697     1.152137    -0.870795     1.200000     0.975000
    0.157219     2.518724     0.000302     1.200000     0.975000
    2.240035     1.249598     0.000460     1.200000     0.975000
    2.240037    -1.249594    -0.000454     1.200000     0.975000
   -1.785840     1.152972     0.868876     1.200000     0.975000
   -1.784681    -1.152136     0.870808     1.200000     0.975000

--link1--

%chk=1b_xp-095.chk
%nproc=6
#p b3lyp/6-31g(d) 
# scrf=(iefpcm,solvent=Cyclohexane,read) nosym 

Cycloexadiene, E(B3LYP/6-31G*)
xp-pcm for eta=3

0 1
 C                  0.13841300   -1.43021100   -0.00014400
 C                 -1.22553800   -0.78008000    0.00040700
 C                 -1.22554100    0.78007700   -0.00040500
 C                  0.13841000    1.43021200    0.00013500
 C                  1.28267300    0.73359900    0.00019200
 C                  1.28267500   -0.73359600   -0.00018600
 H                  0.15722500   -2.51872300   -0.00033200
 H                 -1.78585100   -1.15298200   -0.86886100
 H                 -1.78469700    1.15213700   -0.87079500
 H                  0.15721900    2.51872400    0.00030200
 H                  2.24003500    1.24959800    0.00046000
 H                  2.24003700   -1.24959400   -0.00045400
 H                 -1.78584000    1.15297200    0.86887600
 H                 -1.78468100   -1.15213600    0.87080800         

qrep pcmdoc geomview  nodis nocav g03defaults tsare=0.075 
nsfe=14
NVESolv=36  SolvMW=84.1595   Rsolv=2.815 
eps=2.43089215137238 RhoS=1.5418227603105

    0.138413    -1.430211    -0.000144     1.700000     0.950000
   -1.225538    -0.780080     0.000407     1.700000     0.950000
   -1.225541     0.780077    -0.000405     1.700000     0.950000
    0.138410     1.430212     0.000135     1.700000     0.950000
    1.282673     0.733599     0.000192     1.700000     0.950000
    1.282675    -0.733596    -0.000186     1.700000     0.950000
    0.157225    -2.518723    -0.000332     1.200000     0.950000
   -1.785851    -1.152982    -0.868861     1.200000     0.950000
   -1.784697     1.152137    -0.870795     1.200000     0.950000
    0.157219     2.518724     0.000302     1.200000     0.950000
    2.240035     1.249598     0.000460     1.200000     0.950000
    2.240037    -1.249594    -0.000454     1.200000     0.950000
   -1.785840     1.152972     0.868876     1.200000     0.950000
   -1.784681    -1.152136     0.870808     1.200000     0.950000


