%nproc=6
#p b3lyp/6-31g(d) 

endo-2

0 1
 C -2.454531 -0.620920 0.450078
 C -2.429115 0.860192 0.177901
 C -1.411688 1.453495 -0.452012
 C -0.144149 0.761548 -0.892337
 C -0.185628 -0.801613 -0.789740
 C -1.604183 -1.370946 -0.585116
 H -1.446210 2.528854 -0.632087
 H -3.282020 1.454343 0.503764
 H -2.092649 -0.822074 1.469083
 H -3.486923 -0.994204 0.418758
 H 0.057528 1.047828 -1.935726
 H 0.169231 -1.207683 -1.746829
 H -2.132404 -1.318363 -1.546324
 H -1.534534 -2.436262 -0.327132
 C 0.716641 -0.470708 1.551966
 C 0.862900 -1.264979 0.274427
 H 0.549920 -0.955102 2.511169
 H 0.766306 -2.343321 0.443899
 C 2.267636 -0.935217 -0.307517
 H 3.039458 -1.259338 0.398554
 H 2.424242 -1.498287 -1.236154
 C 0.843594 0.852001 1.392785
 H 0.780145 1.572240 2.204115
 C 1.068138 1.281056 -0.039061
 H 1.146978 2.369349 -0.136763
 C 2.359537 0.594607 -0.563515
 H 3.233257 1.023470 -0.061341
 H 2.472773 0.807458 -1.634143         


