%chk=meso-TS_25_2_xp-12.chk
%nproc=24
%mem=48GB
#p uwb97xd guess=mix def2tzvp 
# scrf=(iefpcm,solvent=Cyclohexane,read) nosym 6d 10f 

endo-2
xp-pcm for eta=3

0 1
  6  -3.122592  -0.438388   0.249109 
  6  -0.621801  -0.222716  -1.060943 
  1  -4.085324  -0.547212   0.735016 
  1   0.349284  -0.128633  -1.527138 
  6   1.104299   1.412726   0.711533 
  6   0.621801   0.222716   1.060943 
  1   0.516259   2.312051   0.844298 
  1  -0.349284   0.128633   1.527138 
  6   1.489396  -1.000996   1.019772 
  1   1.961797  -1.065850   2.008075 
  1   0.889010  -1.902931   0.914465 
  6   2.428355   1.519137   0.107940 
  1   2.836160   2.506797  -0.071809 
  6   3.122592   0.438388  -0.249109 
  1   4.085324   0.547212  -0.735016 
  6   2.589439  -0.953530  -0.045302 
  1   2.226867  -1.339383  -1.006111 
  1   3.400958  -1.623074   0.247309 
  6  -1.104299  -1.412726  -0.711533 
  1  -0.516259  -2.312051  -0.844298 
  6  -2.428355  -1.519137  -0.107940 
  1  -2.836160  -2.506797   0.071809 
  6  -1.489396   1.000996  -1.019772 
  1  -0.889010   1.902931  -0.914465 
  1  -1.961797   1.065850  -2.008075 
  6  -2.589439   0.953530   0.045302 
  1  -3.400958   1.623074  -0.247309 
  1  -2.226867   1.339383   1.006111 

qrep pcmdoc geomview  nodis nocav g03defaults tsare=0.075 
nsfe=28
NVESolv=36  SolvMW=84.1595   Rsolv=2.815 
eps=2.0165 RhoS=0.778099999999998

   -3.122592    -0.438388     0.249109     1.700000     1.200000
   -0.621801    -0.222716    -1.060943     1.700000     1.200000
   -4.085324    -0.547212     0.735016     1.200000     1.200000
    0.349284    -0.128633    -1.527138     1.200000     1.200000
    1.104299     1.412726     0.711533     1.700000     1.200000
    0.621801     0.222716     1.060943     1.700000     1.200000
    0.516259     2.312051     0.844298     1.200000     1.200000
   -0.349284     0.128633     1.527138     1.200000     1.200000
    1.489396    -1.000996     1.019772     1.700000     1.200000
    1.961797    -1.065850     2.008075     1.200000     1.200000
    0.889010    -1.902931     0.914465     1.200000     1.200000
    2.428355     1.519137     0.107940     1.700000     1.200000
    2.836160     2.506797    -0.071809     1.200000     1.200000
    3.122592     0.438388    -0.249109     1.700000     1.200000
    4.085324     0.547212    -0.735016     1.200000     1.200000
    2.589439    -0.953530    -0.045302     1.700000     1.200000
    2.226867    -1.339383    -1.006111     1.200000     1.200000
    3.400958    -1.623074     0.247309     1.200000     1.200000
   -1.104299    -1.412726    -0.711533     1.700000     1.200000
   -0.516259    -2.312051    -0.844298     1.200000     1.200000
   -2.428355    -1.519137    -0.107940     1.700000     1.200000
   -2.836160    -2.506797     0.071809     1.200000     1.200000
   -1.489396     1.000996    -1.019772     1.700000     1.200000
   -0.889010     1.902931    -0.914465     1.200000     1.200000
   -1.961797     1.065850    -2.008075     1.200000     1.200000
   -2.589439     0.953530     0.045302     1.700000     1.200000
   -3.400958     1.623074    -0.247309     1.200000     1.200000
   -2.226867     1.339383     1.006111     1.200000     1.200000

--link1--
%chk=meso-TS_25_2_xp-115.chk
%nproc=24
%mem=48GB
#p uwb97xd guess=mix def2tzvp 
# scrf=(iefpcm,solvent=Cyclohexane,read) nosym 6d 10f 

endo-2
xp-pcm for eta=3

0 1
  6  -3.122592  -0.438388   0.249109 
  6  -0.621801  -0.222716  -1.060943 
  1  -4.085324  -0.547212   0.735016 
  1   0.349284  -0.128633  -1.527138 
  6   1.104299   1.412726   0.711533 
  6   0.621801   0.222716   1.060943 
  1   0.516259   2.312051   0.844298 
  1  -0.349284   0.128633   1.527138 
  6   1.489396  -1.000996   1.019772 
  1   1.961797  -1.065850   2.008075 
  1   0.889010  -1.902931   0.914465 
  6   2.428355   1.519137   0.107940 
  1   2.836160   2.506797  -0.071809 
  6   3.122592   0.438388  -0.249109 
  1   4.085324   0.547212  -0.735016 
  6   2.589439  -0.953530  -0.045302 
  1   2.226867  -1.339383  -1.006111 
  1   3.400958  -1.623074   0.247309 
  6  -1.104299  -1.412726  -0.711533 
  1  -0.516259  -2.312051  -0.844298 
  6  -2.428355  -1.519137  -0.107940 
  1  -2.836160  -2.506797   0.071809 
  6  -1.489396   1.000996  -1.019772 
  1  -0.889010   1.902931  -0.914465 
  1  -1.961797   1.065850  -2.008075 
  6  -2.589439   0.953530   0.045302 
  1  -3.400958   1.623074  -0.247309 
  1  -2.226867   1.339383   1.006111 

qrep pcmdoc geomview  nodis nocav g03defaults tsare=0.075 
nsfe=28
NVESolv=36  SolvMW=84.1595   Rsolv=2.815 
eps=2.08074995319988 RhoS=0.87957140140931

   -3.122592    -0.438388     0.249109     1.700000     1.150000
   -0.621801    -0.222716    -1.060943     1.700000     1.150000
   -4.085324    -0.547212     0.735016     1.200000     1.150000
    0.349284    -0.128633    -1.527138     1.200000     1.150000
    1.104299     1.412726     0.711533     1.700000     1.150000
    0.621801     0.222716     1.060943     1.700000     1.150000
    0.516259     2.312051     0.844298     1.200000     1.150000
   -0.349284     0.128633     1.527138     1.200000     1.150000
    1.489396    -1.000996     1.019772     1.700000     1.150000
    1.961797    -1.065850     2.008075     1.200000     1.150000
    0.889010    -1.902931     0.914465     1.200000     1.150000
    2.428355     1.519137     0.107940     1.700000     1.150000
    2.836160     2.506797    -0.071809     1.200000     1.150000
    3.122592     0.438388    -0.249109     1.700000     1.150000
    4.085324     0.547212    -0.735016     1.200000     1.150000
    2.589439    -0.953530    -0.045302     1.700000     1.150000
    2.226867    -1.339383    -1.006111     1.200000     1.150000
    3.400958    -1.623074     0.247309     1.200000     1.150000
   -1.104299    -1.412726    -0.711533     1.700000     1.150000
   -0.516259    -2.312051    -0.844298     1.200000     1.150000
   -2.428355    -1.519137    -0.107940     1.700000     1.150000
   -2.836160    -2.506797     0.071809     1.200000     1.150000
   -1.489396     1.000996    -1.019772     1.700000     1.150000
   -0.889010     1.902931    -0.914465     1.200000     1.150000
   -1.961797     1.065850    -2.008075     1.200000     1.150000
   -2.589439     0.953530     0.045302     1.700000     1.150000
   -3.400958     1.623074    -0.247309     1.200000     1.150000
   -2.226867     1.339383     1.006111     1.200000     1.150000

--link1--
%chk=meso-TS_25_2_xp-110.chk
%nproc=24
%mem=48GB
#p uwb97xd guess=mix def2tzvp 
# scrf=(iefpcm,solvent=Cyclohexane,read) nosym 6d 10f 

endo-2
xp-pcm for eta=3

0 1
  6  -3.122592  -0.438388   0.249109 
  6  -0.621801  -0.222716  -1.060943 
  1  -4.085324  -0.547212   0.735016 
  1   0.349284  -0.128633  -1.527138 
  6   1.104299   1.412726   0.711533 
  6   0.621801   0.222716   1.060943 
  1   0.516259   2.312051   0.844298 
  1  -0.349284   0.128633   1.527138 
  6   1.489396  -1.000996   1.019772 
  1   1.961797  -1.065850   2.008075 
  1   0.889010  -1.902931   0.914465 
  6   2.428355   1.519137   0.107940 
  1   2.836160   2.506797  -0.071809 
  6   3.122592   0.438388  -0.249109 
  1   4.085324   0.547212  -0.735016 
  6   2.589439  -0.953530  -0.045302 
  1   2.226867  -1.339383  -1.006111 
  1   3.400958  -1.623074   0.247309 
  6  -1.104299  -1.412726  -0.711533 
  1  -0.516259  -2.312051  -0.844298 
  6  -2.428355  -1.519137  -0.107940 
  1  -2.836160  -2.506797   0.071809 
  6  -1.489396   1.000996  -1.019772 
  1  -0.889010   1.902931  -0.914465 
  1  -1.961797   1.065850  -2.008075 
  6  -2.589439   0.953530   0.045302 
  1  -3.400958   1.623074  -0.247309 
  1  -2.226867   1.339383   1.006111 

qrep pcmdoc geomview  nodis nocav g03defaults tsare=0.075 
nsfe=28
NVESolv=36  SolvMW=84.1595   Rsolv=2.815 
eps=2.14797859684703 RhoS=0.992403372535132

   -3.122592    -0.438388     0.249109     1.700000     1.100000
   -0.621801    -0.222716    -1.060943     1.700000     1.100000
   -4.085324    -0.547212     0.735016     1.200000     1.100000
    0.349284    -0.128633    -1.527138     1.200000     1.100000
    1.104299     1.412726     0.711533     1.700000     1.100000
    0.621801     0.222716     1.060943     1.700000     1.100000
    0.516259     2.312051     0.844298     1.200000     1.100000
   -0.349284     0.128633     1.527138     1.200000     1.100000
    1.489396    -1.000996     1.019772     1.700000     1.100000
    1.961797    -1.065850     2.008075     1.200000     1.100000
    0.889010    -1.902931     0.914465     1.200000     1.100000
    2.428355     1.519137     0.107940     1.700000     1.100000
    2.836160     2.506797    -0.071809     1.200000     1.100000
    3.122592     0.438388    -0.249109     1.700000     1.100000
    4.085324     0.547212    -0.735016     1.200000     1.100000
    2.589439    -0.953530    -0.045302     1.700000     1.100000
    2.226867    -1.339383    -1.006111     1.200000     1.100000
    3.400958    -1.623074     0.247309     1.200000     1.100000
   -1.104299    -1.412726    -0.711533     1.700000     1.100000
   -0.516259    -2.312051    -0.844298     1.200000     1.100000
   -2.428355    -1.519137    -0.107940     1.700000     1.100000
   -2.836160    -2.506797     0.071809     1.200000     1.100000
   -1.489396     1.000996    -1.019772     1.700000     1.100000
   -0.889010     1.902931    -0.914465     1.200000     1.100000
   -1.961797     1.065850    -2.008075     1.200000     1.100000
   -2.589439     0.953530     0.045302     1.700000     1.100000
   -3.400958     1.623074    -0.247309     1.200000     1.100000
   -2.226867     1.339383     1.006111     1.200000     1.100000

--link1--
%chk=meso-TS_25_2_xp-105.chk
%nproc=24
%mem=48GB
#p uwb97xd guess=mix def2tzvp 
# scrf=(iefpcm,solvent=Cyclohexane,read) nosym 6d 10f 

endo-2
xp-pcm for eta=3

0 1
  6  -3.122592  -0.438388   0.249109 
  6  -0.621801  -0.222716  -1.060943 
  1  -4.085324  -0.547212   0.735016 
  1   0.349284  -0.128633  -1.527138 
  6   1.104299   1.412726   0.711533 
  6   0.621801   0.222716   1.060943 
  1   0.516259   2.312051   0.844298 
  1  -0.349284   0.128633   1.527138 
  6   1.489396  -1.000996   1.019772 
  1   1.961797  -1.065850   2.008075 
  1   0.889010  -1.902931   0.914465 
  6   2.428355   1.519137   0.107940 
  1   2.836160   2.506797  -0.071809 
  6   3.122592   0.438388  -0.249109 
  1   4.085324   0.547212  -0.735016 
  6   2.589439  -0.953530  -0.045302 
  1   2.226867  -1.339383  -1.006111 
  1   3.400958  -1.623074   0.247309 
  6  -1.104299  -1.412726  -0.711533 
  1  -0.516259  -2.312051  -0.844298 
  6  -2.428355  -1.519137  -0.107940 
  1  -2.836160  -2.506797   0.071809 
  6  -1.489396   1.000996  -1.019772 
  1  -0.889010   1.902931  -0.914465 
  1  -1.961797   1.065850  -2.008075 
  6  -2.589439   0.953530   0.045302 
  1  -3.400958   1.623074  -0.247309 
  1  -2.226867   1.339383   1.006111 

qrep pcmdoc geomview  nodis nocav g03defaults tsare=0.075 
nsfe=28
NVESolv=36  SolvMW=84.1595   Rsolv=2.815 
eps=2.22376880117094 RhoS=1.12776705486046

   -3.122592    -0.438388     0.249109     1.700000     1.050000
   -0.621801    -0.222716    -1.060943     1.700000     1.050000
   -4.085324    -0.547212     0.735016     1.200000     1.050000
    0.349284    -0.128633    -1.527138     1.200000     1.050000
    1.104299     1.412726     0.711533     1.700000     1.050000
    0.621801     0.222716     1.060943     1.700000     1.050000
    0.516259     2.312051     0.844298     1.200000     1.050000
   -0.349284     0.128633     1.527138     1.200000     1.050000
    1.489396    -1.000996     1.019772     1.700000     1.050000
    1.961797    -1.065850     2.008075     1.200000     1.050000
    0.889010    -1.902931     0.914465     1.200000     1.050000
    2.428355     1.519137     0.107940     1.700000     1.050000
    2.836160     2.506797    -0.071809     1.200000     1.050000
    3.122592     0.438388    -0.249109     1.700000     1.050000
    4.085324     0.547212    -0.735016     1.200000     1.050000
    2.589439    -0.953530    -0.045302     1.700000     1.050000
    2.226867    -1.339383    -1.006111     1.200000     1.050000
    3.400958    -1.623074     0.247309     1.200000     1.050000
   -1.104299    -1.412726    -0.711533     1.700000     1.050000
   -0.516259    -2.312051    -0.844298     1.200000     1.050000
   -2.428355    -1.519137    -0.107940     1.700000     1.050000
   -2.836160    -2.506797     0.071809     1.200000     1.050000
   -1.489396     1.000996    -1.019772     1.700000     1.050000
   -0.889010     1.902931    -0.914465     1.200000     1.050000
   -1.961797     1.065850    -2.008075     1.200000     1.050000
   -2.589439     0.953530     0.045302     1.700000     1.050000
   -3.400958     1.623074    -0.247309     1.200000     1.050000
   -2.226867     1.339383     1.006111     1.200000     1.050000

--link1--
%chk=meso-TS_25_2_xp-100.chk
%nproc=24
%mem=48GB
#p uwb97xd guess=mix def2tzvp 
# scrf=(iefpcm,solvent=Cyclohexane,read) nosym 6d 10f 

endo-2
xp-pcm for eta=3

0 1
  6  -3.122592  -0.438388   0.249109 
  6  -0.621801  -0.222716  -1.060943 
  1  -4.085324  -0.547212   0.735016 
  1   0.349284  -0.128633  -1.527138 
  6   1.104299   1.412726   0.711533 
  6   0.621801   0.222716   1.060943 
  1   0.516259   2.312051   0.844298 
  1  -0.349284   0.128633   1.527138 
  6   1.489396  -1.000996   1.019772 
  1   1.961797  -1.065850   2.008075 
  1   0.889010  -1.902931   0.914465 
  6   2.428355   1.519137   0.107940 
  1   2.836160   2.506797  -0.071809 
  6   3.122592   0.438388  -0.249109 
  1   4.085324   0.547212  -0.735016 
  6   2.589439  -0.953530  -0.045302 
  1   2.226867  -1.339383  -1.006111 
  1   3.400958  -1.623074   0.247309 
  6  -1.104299  -1.412726  -0.711533 
  1  -0.516259  -2.312051  -0.844298 
  6  -2.428355  -1.519137  -0.107940 
  1  -2.836160  -2.506797   0.071809 
  6  -1.489396   1.000996  -1.019772 
  1  -0.889010   1.902931  -0.914465 
  1  -1.961797   1.065850  -2.008075 
  6  -2.589439   0.953530   0.045302 
  1  -3.400958   1.623074  -0.247309 
  1  -2.226867   1.339383   1.006111 

qrep pcmdoc geomview  nodis nocav g03defaults tsare=0.075 
nsfe=28
NVESolv=36  SolvMW=84.1595   Rsolv=2.815 
eps=2.30480546666792 RhoS=1.28207131826017

   -3.122592    -0.438388     0.249109     1.700000     1.000000
   -0.621801    -0.222716    -1.060943     1.700000     1.000000
   -4.085324    -0.547212     0.735016     1.200000     1.000000
    0.349284    -0.128633    -1.527138     1.200000     1.000000
    1.104299     1.412726     0.711533     1.700000     1.000000
    0.621801     0.222716     1.060943     1.700000     1.000000
    0.516259     2.312051     0.844298     1.200000     1.000000
   -0.349284     0.128633     1.527138     1.200000     1.000000
    1.489396    -1.000996     1.019772     1.700000     1.000000
    1.961797    -1.065850     2.008075     1.200000     1.000000
    0.889010    -1.902931     0.914465     1.200000     1.000000
    2.428355     1.519137     0.107940     1.700000     1.000000
    2.836160     2.506797    -0.071809     1.200000     1.000000
    3.122592     0.438388    -0.249109     1.700000     1.000000
    4.085324     0.547212    -0.735016     1.200000     1.000000
    2.589439    -0.953530    -0.045302     1.700000     1.000000
    2.226867    -1.339383    -1.006111     1.200000     1.000000
    3.400958    -1.623074     0.247309     1.200000     1.000000
   -1.104299    -1.412726    -0.711533     1.700000     1.000000
   -0.516259    -2.312051    -0.844298     1.200000     1.000000
   -2.428355    -1.519137    -0.107940     1.700000     1.000000
   -2.836160    -2.506797     0.071809     1.200000     1.000000
   -1.489396     1.000996    -1.019772     1.700000     1.000000
   -0.889010     1.902931    -0.914465     1.200000     1.000000
   -1.961797     1.065850    -2.008075     1.200000     1.000000
   -2.589439     0.953530     0.045302     1.700000     1.000000
   -3.400958     1.623074    -0.247309     1.200000     1.000000
   -2.226867     1.339383     1.006111     1.200000     1.000000

--link1--
%chk=meso-TS_25_2_xp-0975.chk
%nproc=24
%mem=48GB
#p uwb97xd guess=mix def2tzvp 
# scrf=(iefpcm,solvent=Cyclohexane,read) nosym 6d 10f 

endo-2
xp-pcm for eta=3

0 1
  6  -3.122592  -0.438388   0.249109 
  6  -0.621801  -0.222716  -1.060943 
  1  -4.085324  -0.547212   0.735016 
  1   0.349284  -0.128633  -1.527138 
  6   1.104299   1.412726   0.711533 
  6   0.621801   0.222716   1.060943 
  1   0.516259   2.312051   0.844298 
  1  -0.349284   0.128633   1.527138 
  6   1.489396  -1.000996   1.019772 
  1   1.961797  -1.065850   2.008075 
  1   0.889010  -1.902931   0.914465 
  6   2.428355   1.519137   0.107940 
  1   2.836160   2.506797  -0.071809 
  6   3.122592   0.438388  -0.249109 
  1   4.085324   0.547212  -0.735016 
  6   2.589439  -0.953530  -0.045302 
  1   2.226867  -1.339383  -1.006111 
  1   3.400958  -1.623074   0.247309 
  6  -1.104299  -1.412726  -0.711533 
  1  -0.516259  -2.312051  -0.844298 
  6  -2.428355  -1.519137  -0.107940 
  1  -2.836160  -2.506797   0.071809 
  6  -1.489396   1.000996  -1.019772 
  1  -0.889010   1.902931  -0.914465 
  1  -1.961797   1.065850  -2.008075 
  6  -2.589439   0.953530   0.045302 
  1  -3.400958   1.623074  -0.247309 
  1  -2.226867   1.339383   1.006111 

qrep pcmdoc geomview  nodis nocav g03defaults tsare=0.075 
nsfe=28
NVESolv=36  SolvMW=84.1595   Rsolv=2.815 
eps=2.34745273026226 RhoS=1.36724935387803

   -3.122592    -0.438388     0.249109     1.700000     0.975000
   -0.621801    -0.222716    -1.060943     1.700000     0.975000
   -4.085324    -0.547212     0.735016     1.200000     0.975000
    0.349284    -0.128633    -1.527138     1.200000     0.975000
    1.104299     1.412726     0.711533     1.700000     0.975000
    0.621801     0.222716     1.060943     1.700000     0.975000
    0.516259     2.312051     0.844298     1.200000     0.975000
   -0.349284     0.128633     1.527138     1.200000     0.975000
    1.489396    -1.000996     1.019772     1.700000     0.975000
    1.961797    -1.065850     2.008075     1.200000     0.975000
    0.889010    -1.902931     0.914465     1.200000     0.975000
    2.428355     1.519137     0.107940     1.700000     0.975000
    2.836160     2.506797    -0.071809     1.200000     0.975000
    3.122592     0.438388    -0.249109     1.700000     0.975000
    4.085324     0.547212    -0.735016     1.200000     0.975000
    2.589439    -0.953530    -0.045302     1.700000     0.975000
    2.226867    -1.339383    -1.006111     1.200000     0.975000
    3.400958    -1.623074     0.247309     1.200000     0.975000
   -1.104299    -1.412726    -0.711533     1.700000     0.975000
   -0.516259    -2.312051    -0.844298     1.200000     0.975000
   -2.428355    -1.519137    -0.107940     1.700000     0.975000
   -2.836160    -2.506797     0.071809     1.200000     0.975000
   -1.489396     1.000996    -1.019772     1.700000     0.975000
   -0.889010     1.902931    -0.914465     1.200000     0.975000
   -1.961797     1.065850    -2.008075     1.200000     0.975000
   -2.589439     0.953530     0.045302     1.700000     0.975000
   -3.400958     1.623074    -0.247309     1.200000     0.975000
   -2.226867     1.339383     1.006111     1.200000     0.975000

--link1--
%chk=meso-TS_25_2_xp-095.chk
%nproc=24
%mem=48GB
#p uwb97xd guess=mix def2tzvp 
# scrf=(iefpcm,solvent=Cyclohexane,read) nosym 6d 10f 

endo-2
xp-pcm for eta=3

0 1
  6  -3.122592  -0.438388   0.249109 
  6  -0.621801  -0.222716  -1.060943 
  1  -4.085324  -0.547212   0.735016 
  1   0.349284  -0.128633  -1.527138 
  6   1.104299   1.412726   0.711533 
  6   0.621801   0.222716   1.060943 
  1   0.516259   2.312051   0.844298 
  1  -0.349284   0.128633   1.527138 
  6   1.489396  -1.000996   1.019772 
  1   1.961797  -1.065850   2.008075 
  1   0.889010  -1.902931   0.914465 
  6   2.428355   1.519137   0.107940 
  1   2.836160   2.506797  -0.071809 
  6   3.122592   0.438388  -0.249109 
  1   4.085324   0.547212  -0.735016 
  6   2.589439  -0.953530  -0.045302 
  1   2.226867  -1.339383  -1.006111 
  1   3.400958  -1.623074   0.247309 
  6  -1.104299  -1.412726  -0.711533 
  1  -0.516259  -2.312051  -0.844298 
  6  -2.428355  -1.519137  -0.107940 
  1  -2.836160  -2.506797   0.071809 
  6  -1.489396   1.000996  -1.019772 
  1  -0.889010   1.902931  -0.914465 
  1  -1.961797   1.065850  -2.008075 
  6  -2.589439   0.953530   0.045302 
  1  -3.400958   1.623074  -0.247309 
  1  -2.226867   1.339383   1.006111 

qrep pcmdoc geomview  nodis nocav g03defaults tsare=0.075 
nsfe=28
NVESolv=36  SolvMW=84.1595   Rsolv=2.815 
eps=2.39339884323873 RhoS=1.4620813611373

   -3.122592    -0.438388     0.249109     1.700000     0.950000
   -0.621801    -0.222716    -1.060943     1.700000     0.950000
   -4.085324    -0.547212     0.735016     1.200000     0.950000
    0.349284    -0.128633    -1.527138     1.200000     0.950000
    1.104299     1.412726     0.711533     1.700000     0.950000
    0.621801     0.222716     1.060943     1.700000     0.950000
    0.516259     2.312051     0.844298     1.200000     0.950000
   -0.349284     0.128633     1.527138     1.200000     0.950000
    1.489396    -1.000996     1.019772     1.700000     0.950000
    1.961797    -1.065850     2.008075     1.200000     0.950000
    0.889010    -1.902931     0.914465     1.200000     0.950000
    2.428355     1.519137     0.107940     1.700000     0.950000
    2.836160     2.506797    -0.071809     1.200000     0.950000
    3.122592     0.438388    -0.249109     1.700000     0.950000
    4.085324     0.547212    -0.735016     1.200000     0.950000
    2.589439    -0.953530    -0.045302     1.700000     0.950000
    2.226867    -1.339383    -1.006111     1.200000     0.950000
    3.400958    -1.623074     0.247309     1.200000     0.950000
   -1.104299    -1.412726    -0.711533     1.700000     0.950000
   -0.516259    -2.312051    -0.844298     1.200000     0.950000
   -2.428355    -1.519137    -0.107940     1.700000     0.950000
   -2.836160    -2.506797     0.071809     1.200000     0.950000
   -1.489396     1.000996    -1.019772     1.700000     0.950000
   -0.889010     1.902931    -0.914465     1.200000     0.950000
   -1.961797     1.065850    -2.008075     1.200000     0.950000
   -2.589439     0.953530     0.045302     1.700000     0.950000
   -3.400958     1.623074    -0.247309     1.200000     0.950000
   -2.226867     1.339383     1.006111     1.200000     0.950000

