%nproc=24
%mem=48GB
#p uwb97xd guess=mix def2tzvp 

endo-2

0 1
  6  -3.122470  -0.440058   0.276975 
  6  -0.793602  -0.266559  -1.328116 
  1  -4.046206  -0.522341   0.837948 
  1   0.137450  -0.191140  -1.876700 
  6   1.211142   1.436071   0.851497 
  6   0.793602   0.266559   1.328116 
  1   0.622538   2.333911   0.998656 
  1  -0.137450   0.191140   1.876700 
  6   1.622558  -0.976856   1.180624 
  1   2.212257  -1.097312   2.098755 
  1   0.974203  -1.852222   1.118717 
  6   2.477717   1.534171   0.124202 
  1   2.877889   2.517165  -0.093700 
  6   3.122470   0.440058  -0.276975 
  1   4.046206   0.522341  -0.837948 
  6   2.557076  -0.932299  -0.031688 
  1   2.014913  -1.245658  -0.932277 
  1   3.363343  -1.656840   0.096808 
  6  -1.211142  -1.436071  -0.851497 
  1  -0.622538  -2.333911  -0.998656 
  6  -2.477717  -1.534171  -0.124202 
  1  -2.877889  -2.517165   0.093700 
  6  -1.622558   0.976856  -1.180624 
  1  -0.974203   1.852222  -1.118717 
  1  -2.212257   1.097312  -2.098755 
  6  -2.557076   0.932299   0.031688 
  1  -3.363343   1.656840  -0.096808 
  1  -2.014913   1.245658   0.932277 

