%chk=meso-TS_13_1_xp-12.chk
%nproc=24
%mem=48GB
#p uwb97xd guess=mix def2tzvp 
# scrf=(iefpcm,solvent=Cyclohexane,read) nosym 6d 10f 

endo-2
xp-pcm for eta=3

0 1
  6  -3.119691  -0.425826   0.248428 
  6  -0.438059  -0.127566  -0.740444 
  1  -4.086791  -0.546863   0.720948 
  1   0.329828  -0.109733  -1.515278 
  6   1.116208   1.432588   0.668787 
  6   0.438059   0.127566   0.740444 
  1   0.567375   2.333262   0.913532 
  1  -0.329828   0.109733   1.515278 
  6   1.453963  -0.997822   0.978822 
  1   1.872621  -0.887919   1.983401 
  1   0.950096  -1.965338   0.950002 
  6   2.395835   1.529761   0.125114 
  1   2.827943   2.513325  -0.022973 
  6   3.119691   0.425826  -0.248428 
  1   4.086791   0.546863  -0.720948 
  6   2.592903  -0.959744  -0.042391 
  1   2.246941  -1.360164  -1.004660 
  1   3.401404  -1.625003   0.272285 
  6  -1.116208  -1.432588  -0.668787 
  1  -0.567375  -2.333262  -0.913532 
  6  -2.395835  -1.529761  -0.125114 
  1  -2.827943  -2.513325   0.022973 
  6  -1.453963   0.997822  -0.978822 
  1  -0.950096   1.965338  -0.950002 
  1  -1.872621   0.887919  -1.983401 
  6  -2.592903   0.959744   0.042391 
  1  -3.401404   1.625003  -0.272284 
  1  -2.246941   1.360164   1.004660 

qrep pcmdoc geomview  nodis nocav g03defaults tsare=0.075 
nsfe=28
NVESolv=36  SolvMW=84.1595   Rsolv=2.815 
eps=2.0165 RhoS=0.778099999999998

   -3.119691    -0.425826     0.248428     1.700000     1.200000
   -0.438059    -0.127566    -0.740444     1.700000     1.200000
   -4.086791    -0.546863     0.720948     1.200000     1.200000
    0.329828    -0.109733    -1.515278     1.200000     1.200000
    1.116208     1.432588     0.668787     1.700000     1.200000
    0.438059     0.127566     0.740444     1.700000     1.200000
    0.567375     2.333262     0.913532     1.200000     1.200000
   -0.329828     0.109733     1.515278     1.200000     1.200000
    1.453963    -0.997822     0.978822     1.700000     1.200000
    1.872621    -0.887919     1.983401     1.200000     1.200000
    0.950096    -1.965338     0.950002     1.200000     1.200000
    2.395835     1.529761     0.125114     1.700000     1.200000
    2.827943     2.513325    -0.022973     1.200000     1.200000
    3.119691     0.425826    -0.248428     1.700000     1.200000
    4.086791     0.546863    -0.720948     1.200000     1.200000
    2.592903    -0.959744    -0.042391     1.700000     1.200000
    2.246941    -1.360164    -1.004660     1.200000     1.200000
    3.401404    -1.625003     0.272285     1.200000     1.200000
   -1.116208    -1.432588    -0.668787     1.700000     1.200000
   -0.567375    -2.333262    -0.913532     1.200000     1.200000
   -2.395835    -1.529761    -0.125114     1.700000     1.200000
   -2.827943    -2.513325     0.022973     1.200000     1.200000
   -1.453963     0.997822    -0.978822     1.700000     1.200000
   -0.950096     1.965338    -0.950002     1.200000     1.200000
   -1.872621     0.887919    -1.983401     1.200000     1.200000
   -2.592903     0.959744     0.042391     1.700000     1.200000
   -3.401404     1.625003    -0.272284     1.200000     1.200000
   -2.246941     1.360164     1.004660     1.200000     1.200000

--link1--
%chk=meso-TS_13_1_xp-115.chk
%nproc=24
%mem=48GB
#p uwb97xd guess=mix def2tzvp 
# scrf=(iefpcm,solvent=Cyclohexane,read) nosym 6d 10f 

endo-2
xp-pcm for eta=3

0 1
  6  -3.119691  -0.425826   0.248428 
  6  -0.438059  -0.127566  -0.740444 
  1  -4.086791  -0.546863   0.720948 
  1   0.329828  -0.109733  -1.515278 
  6   1.116208   1.432588   0.668787 
  6   0.438059   0.127566   0.740444 
  1   0.567375   2.333262   0.913532 
  1  -0.329828   0.109733   1.515278 
  6   1.453963  -0.997822   0.978822 
  1   1.872621  -0.887919   1.983401 
  1   0.950096  -1.965338   0.950002 
  6   2.395835   1.529761   0.125114 
  1   2.827943   2.513325  -0.022973 
  6   3.119691   0.425826  -0.248428 
  1   4.086791   0.546863  -0.720948 
  6   2.592903  -0.959744  -0.042391 
  1   2.246941  -1.360164  -1.004660 
  1   3.401404  -1.625003   0.272285 
  6  -1.116208  -1.432588  -0.668787 
  1  -0.567375  -2.333262  -0.913532 
  6  -2.395835  -1.529761  -0.125114 
  1  -2.827943  -2.513325   0.022973 
  6  -1.453963   0.997822  -0.978822 
  1  -0.950096   1.965338  -0.950002 
  1  -1.872621   0.887919  -1.983401 
  6  -2.592903   0.959744   0.042391 
  1  -3.401404   1.625003  -0.272284 
  1  -2.246941   1.360164   1.004660 

qrep pcmdoc geomview  nodis nocav g03defaults tsare=0.075 
nsfe=28
NVESolv=36  SolvMW=84.1595   Rsolv=2.815 
eps=2.08074995319988 RhoS=0.87957140140931

   -3.119691    -0.425826     0.248428     1.700000     1.150000
   -0.438059    -0.127566    -0.740444     1.700000     1.150000
   -4.086791    -0.546863     0.720948     1.200000     1.150000
    0.329828    -0.109733    -1.515278     1.200000     1.150000
    1.116208     1.432588     0.668787     1.700000     1.150000
    0.438059     0.127566     0.740444     1.700000     1.150000
    0.567375     2.333262     0.913532     1.200000     1.150000
   -0.329828     0.109733     1.515278     1.200000     1.150000
    1.453963    -0.997822     0.978822     1.700000     1.150000
    1.872621    -0.887919     1.983401     1.200000     1.150000
    0.950096    -1.965338     0.950002     1.200000     1.150000
    2.395835     1.529761     0.125114     1.700000     1.150000
    2.827943     2.513325    -0.022973     1.200000     1.150000
    3.119691     0.425826    -0.248428     1.700000     1.150000
    4.086791     0.546863    -0.720948     1.200000     1.150000
    2.592903    -0.959744    -0.042391     1.700000     1.150000
    2.246941    -1.360164    -1.004660     1.200000     1.150000
    3.401404    -1.625003     0.272285     1.200000     1.150000
   -1.116208    -1.432588    -0.668787     1.700000     1.150000
   -0.567375    -2.333262    -0.913532     1.200000     1.150000
   -2.395835    -1.529761    -0.125114     1.700000     1.150000
   -2.827943    -2.513325     0.022973     1.200000     1.150000
   -1.453963     0.997822    -0.978822     1.700000     1.150000
   -0.950096     1.965338    -0.950002     1.200000     1.150000
   -1.872621     0.887919    -1.983401     1.200000     1.150000
   -2.592903     0.959744     0.042391     1.700000     1.150000
   -3.401404     1.625003    -0.272284     1.200000     1.150000
   -2.246941     1.360164     1.004660     1.200000     1.150000

--link1--
%chk=meso-TS_13_1_xp-110.chk
%nproc=24
%mem=48GB
#p uwb97xd guess=mix def2tzvp 
# scrf=(iefpcm,solvent=Cyclohexane,read) nosym 6d 10f 

endo-2
xp-pcm for eta=3

0 1
  6  -3.119691  -0.425826   0.248428 
  6  -0.438059  -0.127566  -0.740444 
  1  -4.086791  -0.546863   0.720948 
  1   0.329828  -0.109733  -1.515278 
  6   1.116208   1.432588   0.668787 
  6   0.438059   0.127566   0.740444 
  1   0.567375   2.333262   0.913532 
  1  -0.329828   0.109733   1.515278 
  6   1.453963  -0.997822   0.978822 
  1   1.872621  -0.887919   1.983401 
  1   0.950096  -1.965338   0.950002 
  6   2.395835   1.529761   0.125114 
  1   2.827943   2.513325  -0.022973 
  6   3.119691   0.425826  -0.248428 
  1   4.086791   0.546863  -0.720948 
  6   2.592903  -0.959744  -0.042391 
  1   2.246941  -1.360164  -1.004660 
  1   3.401404  -1.625003   0.272285 
  6  -1.116208  -1.432588  -0.668787 
  1  -0.567375  -2.333262  -0.913532 
  6  -2.395835  -1.529761  -0.125114 
  1  -2.827943  -2.513325   0.022973 
  6  -1.453963   0.997822  -0.978822 
  1  -0.950096   1.965338  -0.950002 
  1  -1.872621   0.887919  -1.983401 
  6  -2.592903   0.959744   0.042391 
  1  -3.401404   1.625003  -0.272284 
  1  -2.246941   1.360164   1.004660 

qrep pcmdoc geomview  nodis nocav g03defaults tsare=0.075 
nsfe=28
NVESolv=36  SolvMW=84.1595   Rsolv=2.815 
eps=2.14797859684703 RhoS=0.992403372535132

   -3.119691    -0.425826     0.248428     1.700000     1.100000
   -0.438059    -0.127566    -0.740444     1.700000     1.100000
   -4.086791    -0.546863     0.720948     1.200000     1.100000
    0.329828    -0.109733    -1.515278     1.200000     1.100000
    1.116208     1.432588     0.668787     1.700000     1.100000
    0.438059     0.127566     0.740444     1.700000     1.100000
    0.567375     2.333262     0.913532     1.200000     1.100000
   -0.329828     0.109733     1.515278     1.200000     1.100000
    1.453963    -0.997822     0.978822     1.700000     1.100000
    1.872621    -0.887919     1.983401     1.200000     1.100000
    0.950096    -1.965338     0.950002     1.200000     1.100000
    2.395835     1.529761     0.125114     1.700000     1.100000
    2.827943     2.513325    -0.022973     1.200000     1.100000
    3.119691     0.425826    -0.248428     1.700000     1.100000
    4.086791     0.546863    -0.720948     1.200000     1.100000
    2.592903    -0.959744    -0.042391     1.700000     1.100000
    2.246941    -1.360164    -1.004660     1.200000     1.100000
    3.401404    -1.625003     0.272285     1.200000     1.100000
   -1.116208    -1.432588    -0.668787     1.700000     1.100000
   -0.567375    -2.333262    -0.913532     1.200000     1.100000
   -2.395835    -1.529761    -0.125114     1.700000     1.100000
   -2.827943    -2.513325     0.022973     1.200000     1.100000
   -1.453963     0.997822    -0.978822     1.700000     1.100000
   -0.950096     1.965338    -0.950002     1.200000     1.100000
   -1.872621     0.887919    -1.983401     1.200000     1.100000
   -2.592903     0.959744     0.042391     1.700000     1.100000
   -3.401404     1.625003    -0.272284     1.200000     1.100000
   -2.246941     1.360164     1.004660     1.200000     1.100000

--link1--
%chk=meso-TS_13_1_xp-105.chk
%nproc=24
%mem=48GB
#p uwb97xd guess=mix def2tzvp 
# scrf=(iefpcm,solvent=Cyclohexane,read) nosym 6d 10f 

endo-2
xp-pcm for eta=3

0 1
  6  -3.119691  -0.425826   0.248428 
  6  -0.438059  -0.127566  -0.740444 
  1  -4.086791  -0.546863   0.720948 
  1   0.329828  -0.109733  -1.515278 
  6   1.116208   1.432588   0.668787 
  6   0.438059   0.127566   0.740444 
  1   0.567375   2.333262   0.913532 
  1  -0.329828   0.109733   1.515278 
  6   1.453963  -0.997822   0.978822 
  1   1.872621  -0.887919   1.983401 
  1   0.950096  -1.965338   0.950002 
  6   2.395835   1.529761   0.125114 
  1   2.827943   2.513325  -0.022973 
  6   3.119691   0.425826  -0.248428 
  1   4.086791   0.546863  -0.720948 
  6   2.592903  -0.959744  -0.042391 
  1   2.246941  -1.360164  -1.004660 
  1   3.401404  -1.625003   0.272285 
  6  -1.116208  -1.432588  -0.668787 
  1  -0.567375  -2.333262  -0.913532 
  6  -2.395835  -1.529761  -0.125114 
  1  -2.827943  -2.513325   0.022973 
  6  -1.453963   0.997822  -0.978822 
  1  -0.950096   1.965338  -0.950002 
  1  -1.872621   0.887919  -1.983401 
  6  -2.592903   0.959744   0.042391 
  1  -3.401404   1.625003  -0.272284 
  1  -2.246941   1.360164   1.004660 

qrep pcmdoc geomview  nodis nocav g03defaults tsare=0.075 
nsfe=28
NVESolv=36  SolvMW=84.1595   Rsolv=2.815 
eps=2.22376880117094 RhoS=1.12776705486046

   -3.119691    -0.425826     0.248428     1.700000     1.050000
   -0.438059    -0.127566    -0.740444     1.700000     1.050000
   -4.086791    -0.546863     0.720948     1.200000     1.050000
    0.329828    -0.109733    -1.515278     1.200000     1.050000
    1.116208     1.432588     0.668787     1.700000     1.050000
    0.438059     0.127566     0.740444     1.700000     1.050000
    0.567375     2.333262     0.913532     1.200000     1.050000
   -0.329828     0.109733     1.515278     1.200000     1.050000
    1.453963    -0.997822     0.978822     1.700000     1.050000
    1.872621    -0.887919     1.983401     1.200000     1.050000
    0.950096    -1.965338     0.950002     1.200000     1.050000
    2.395835     1.529761     0.125114     1.700000     1.050000
    2.827943     2.513325    -0.022973     1.200000     1.050000
    3.119691     0.425826    -0.248428     1.700000     1.050000
    4.086791     0.546863    -0.720948     1.200000     1.050000
    2.592903    -0.959744    -0.042391     1.700000     1.050000
    2.246941    -1.360164    -1.004660     1.200000     1.050000
    3.401404    -1.625003     0.272285     1.200000     1.050000
   -1.116208    -1.432588    -0.668787     1.700000     1.050000
   -0.567375    -2.333262    -0.913532     1.200000     1.050000
   -2.395835    -1.529761    -0.125114     1.700000     1.050000
   -2.827943    -2.513325     0.022973     1.200000     1.050000
   -1.453963     0.997822    -0.978822     1.700000     1.050000
   -0.950096     1.965338    -0.950002     1.200000     1.050000
   -1.872621     0.887919    -1.983401     1.200000     1.050000
   -2.592903     0.959744     0.042391     1.700000     1.050000
   -3.401404     1.625003    -0.272284     1.200000     1.050000
   -2.246941     1.360164     1.004660     1.200000     1.050000

--link1--
%chk=meso-TS_13_1_xp-100.chk
%nproc=24
%mem=48GB
#p uwb97xd guess=mix def2tzvp 
# scrf=(iefpcm,solvent=Cyclohexane,read) nosym 6d 10f 

endo-2
xp-pcm for eta=3

0 1
  6  -3.119691  -0.425826   0.248428 
  6  -0.438059  -0.127566  -0.740444 
  1  -4.086791  -0.546863   0.720948 
  1   0.329828  -0.109733  -1.515278 
  6   1.116208   1.432588   0.668787 
  6   0.438059   0.127566   0.740444 
  1   0.567375   2.333262   0.913532 
  1  -0.329828   0.109733   1.515278 
  6   1.453963  -0.997822   0.978822 
  1   1.872621  -0.887919   1.983401 
  1   0.950096  -1.965338   0.950002 
  6   2.395835   1.529761   0.125114 
  1   2.827943   2.513325  -0.022973 
  6   3.119691   0.425826  -0.248428 
  1   4.086791   0.546863  -0.720948 
  6   2.592903  -0.959744  -0.042391 
  1   2.246941  -1.360164  -1.004660 
  1   3.401404  -1.625003   0.272285 
  6  -1.116208  -1.432588  -0.668787 
  1  -0.567375  -2.333262  -0.913532 
  6  -2.395835  -1.529761  -0.125114 
  1  -2.827943  -2.513325   0.022973 
  6  -1.453963   0.997822  -0.978822 
  1  -0.950096   1.965338  -0.950002 
  1  -1.872621   0.887919  -1.983401 
  6  -2.592903   0.959744   0.042391 
  1  -3.401404   1.625003  -0.272284 
  1  -2.246941   1.360164   1.004660 

qrep pcmdoc geomview  nodis nocav g03defaults tsare=0.075 
nsfe=28
NVESolv=36  SolvMW=84.1595   Rsolv=2.815 
eps=2.30480546666792 RhoS=1.28207131826017

   -3.119691    -0.425826     0.248428     1.700000     1.000000
   -0.438059    -0.127566    -0.740444     1.700000     1.000000
   -4.086791    -0.546863     0.720948     1.200000     1.000000
    0.329828    -0.109733    -1.515278     1.200000     1.000000
    1.116208     1.432588     0.668787     1.700000     1.000000
    0.438059     0.127566     0.740444     1.700000     1.000000
    0.567375     2.333262     0.913532     1.200000     1.000000
   -0.329828     0.109733     1.515278     1.200000     1.000000
    1.453963    -0.997822     0.978822     1.700000     1.000000
    1.872621    -0.887919     1.983401     1.200000     1.000000
    0.950096    -1.965338     0.950002     1.200000     1.000000
    2.395835     1.529761     0.125114     1.700000     1.000000
    2.827943     2.513325    -0.022973     1.200000     1.000000
    3.119691     0.425826    -0.248428     1.700000     1.000000
    4.086791     0.546863    -0.720948     1.200000     1.000000
    2.592903    -0.959744    -0.042391     1.700000     1.000000
    2.246941    -1.360164    -1.004660     1.200000     1.000000
    3.401404    -1.625003     0.272285     1.200000     1.000000
   -1.116208    -1.432588    -0.668787     1.700000     1.000000
   -0.567375    -2.333262    -0.913532     1.200000     1.000000
   -2.395835    -1.529761    -0.125114     1.700000     1.000000
   -2.827943    -2.513325     0.022973     1.200000     1.000000
   -1.453963     0.997822    -0.978822     1.700000     1.000000
   -0.950096     1.965338    -0.950002     1.200000     1.000000
   -1.872621     0.887919    -1.983401     1.200000     1.000000
   -2.592903     0.959744     0.042391     1.700000     1.000000
   -3.401404     1.625003    -0.272284     1.200000     1.000000
   -2.246941     1.360164     1.004660     1.200000     1.000000

--link1--
%chk=meso-TS_13_1_xp-0975.chk
%nproc=24
%mem=48GB
#p uwb97xd guess=mix def2tzvp 
# scrf=(iefpcm,solvent=Cyclohexane,read) nosym 6d 10f 

endo-2
xp-pcm for eta=3

0 1
  6  -3.119691  -0.425826   0.248428 
  6  -0.438059  -0.127566  -0.740444 
  1  -4.086791  -0.546863   0.720948 
  1   0.329828  -0.109733  -1.515278 
  6   1.116208   1.432588   0.668787 
  6   0.438059   0.127566   0.740444 
  1   0.567375   2.333262   0.913532 
  1  -0.329828   0.109733   1.515278 
  6   1.453963  -0.997822   0.978822 
  1   1.872621  -0.887919   1.983401 
  1   0.950096  -1.965338   0.950002 
  6   2.395835   1.529761   0.125114 
  1   2.827943   2.513325  -0.022973 
  6   3.119691   0.425826  -0.248428 
  1   4.086791   0.546863  -0.720948 
  6   2.592903  -0.959744  -0.042391 
  1   2.246941  -1.360164  -1.004660 
  1   3.401404  -1.625003   0.272285 
  6  -1.116208  -1.432588  -0.668787 
  1  -0.567375  -2.333262  -0.913532 
  6  -2.395835  -1.529761  -0.125114 
  1  -2.827943  -2.513325   0.022973 
  6  -1.453963   0.997822  -0.978822 
  1  -0.950096   1.965338  -0.950002 
  1  -1.872621   0.887919  -1.983401 
  6  -2.592903   0.959744   0.042391 
  1  -3.401404   1.625003  -0.272284 
  1  -2.246941   1.360164   1.004660 

qrep pcmdoc geomview  nodis nocav g03defaults tsare=0.075 
nsfe=28
NVESolv=36  SolvMW=84.1595   Rsolv=2.815 
eps=2.34745273026226 RhoS=1.36724935387803

   -3.119691    -0.425826     0.248428     1.700000     0.975000
   -0.438059    -0.127566    -0.740444     1.700000     0.975000
   -4.086791    -0.546863     0.720948     1.200000     0.975000
    0.329828    -0.109733    -1.515278     1.200000     0.975000
    1.116208     1.432588     0.668787     1.700000     0.975000
    0.438059     0.127566     0.740444     1.700000     0.975000
    0.567375     2.333262     0.913532     1.200000     0.975000
   -0.329828     0.109733     1.515278     1.200000     0.975000
    1.453963    -0.997822     0.978822     1.700000     0.975000
    1.872621    -0.887919     1.983401     1.200000     0.975000
    0.950096    -1.965338     0.950002     1.200000     0.975000
    2.395835     1.529761     0.125114     1.700000     0.975000
    2.827943     2.513325    -0.022973     1.200000     0.975000
    3.119691     0.425826    -0.248428     1.700000     0.975000
    4.086791     0.546863    -0.720948     1.200000     0.975000
    2.592903    -0.959744    -0.042391     1.700000     0.975000
    2.246941    -1.360164    -1.004660     1.200000     0.975000
    3.401404    -1.625003     0.272285     1.200000     0.975000
   -1.116208    -1.432588    -0.668787     1.700000     0.975000
   -0.567375    -2.333262    -0.913532     1.200000     0.975000
   -2.395835    -1.529761    -0.125114     1.700000     0.975000
   -2.827943    -2.513325     0.022973     1.200000     0.975000
   -1.453963     0.997822    -0.978822     1.700000     0.975000
   -0.950096     1.965338    -0.950002     1.200000     0.975000
   -1.872621     0.887919    -1.983401     1.200000     0.975000
   -2.592903     0.959744     0.042391     1.700000     0.975000
   -3.401404     1.625003    -0.272284     1.200000     0.975000
   -2.246941     1.360164     1.004660     1.200000     0.975000

--link1--
%chk=meso-TS_13_1_xp-095.chk
%nproc=24
%mem=48GB
#p uwb97xd guess=mix def2tzvp 
# scrf=(iefpcm,solvent=Cyclohexane,read) nosym 6d 10f 

endo-2
xp-pcm for eta=3

0 1
  6  -3.119691  -0.425826   0.248428 
  6  -0.438059  -0.127566  -0.740444 
  1  -4.086791  -0.546863   0.720948 
  1   0.329828  -0.109733  -1.515278 
  6   1.116208   1.432588   0.668787 
  6   0.438059   0.127566   0.740444 
  1   0.567375   2.333262   0.913532 
  1  -0.329828   0.109733   1.515278 
  6   1.453963  -0.997822   0.978822 
  1   1.872621  -0.887919   1.983401 
  1   0.950096  -1.965338   0.950002 
  6   2.395835   1.529761   0.125114 
  1   2.827943   2.513325  -0.022973 
  6   3.119691   0.425826  -0.248428 
  1   4.086791   0.546863  -0.720948 
  6   2.592903  -0.959744  -0.042391 
  1   2.246941  -1.360164  -1.004660 
  1   3.401404  -1.625003   0.272285 
  6  -1.116208  -1.432588  -0.668787 
  1  -0.567375  -2.333262  -0.913532 
  6  -2.395835  -1.529761  -0.125114 
  1  -2.827943  -2.513325   0.022973 
  6  -1.453963   0.997822  -0.978822 
  1  -0.950096   1.965338  -0.950002 
  1  -1.872621   0.887919  -1.983401 
  6  -2.592903   0.959744   0.042391 
  1  -3.401404   1.625003  -0.272284 
  1  -2.246941   1.360164   1.004660 

qrep pcmdoc geomview  nodis nocav g03defaults tsare=0.075 
nsfe=28
NVESolv=36  SolvMW=84.1595   Rsolv=2.815 
eps=2.39339884323873 RhoS=1.4620813611373

   -3.119691    -0.425826     0.248428     1.700000     0.950000
   -0.438059    -0.127566    -0.740444     1.700000     0.950000
   -4.086791    -0.546863     0.720948     1.200000     0.950000
    0.329828    -0.109733    -1.515278     1.200000     0.950000
    1.116208     1.432588     0.668787     1.700000     0.950000
    0.438059     0.127566     0.740444     1.700000     0.950000
    0.567375     2.333262     0.913532     1.200000     0.950000
   -0.329828     0.109733     1.515278     1.200000     0.950000
    1.453963    -0.997822     0.978822     1.700000     0.950000
    1.872621    -0.887919     1.983401     1.200000     0.950000
    0.950096    -1.965338     0.950002     1.200000     0.950000
    2.395835     1.529761     0.125114     1.700000     0.950000
    2.827943     2.513325    -0.022973     1.200000     0.950000
    3.119691     0.425826    -0.248428     1.700000     0.950000
    4.086791     0.546863    -0.720948     1.200000     0.950000
    2.592903    -0.959744    -0.042391     1.700000     0.950000
    2.246941    -1.360164    -1.004660     1.200000     0.950000
    3.401404    -1.625003     0.272285     1.200000     0.950000
   -1.116208    -1.432588    -0.668787     1.700000     0.950000
   -0.567375    -2.333262    -0.913532     1.200000     0.950000
   -2.395835    -1.529761    -0.125114     1.700000     0.950000
   -2.827943    -2.513325     0.022973     1.200000     0.950000
   -1.453963     0.997822    -0.978822     1.700000     0.950000
   -0.950096     1.965338    -0.950002     1.200000     0.950000
   -1.872621     0.887919    -1.983401     1.200000     0.950000
   -2.592903     0.959744     0.042391     1.700000     0.950000
   -3.401404     1.625003    -0.272284     1.200000     0.950000
   -2.246941     1.360164     1.004660     1.200000     0.950000

