%nproc=24
%mem=48GB
#p uwb97xd guess=mix def2tzvp 

endo-2

0 1
  6  -3.118984  -0.431661   0.247435 
  6  -0.498940  -0.160927  -0.842197 
  1  -4.083986  -0.548798   0.725945 
  1   0.353927  -0.115768  -1.511796 
  6   1.104795   1.419144   0.680915 
  6   0.498940   0.160927   0.842197 
  1   0.544367   2.322264   0.886379 
  1  -0.353927   0.115768   1.511797 
  6   1.462637  -0.999808   0.987512 
  1   1.898804  -0.937531   1.990366 
  1   0.929588  -1.949702   0.936130 
  6   2.406337   1.522553   0.118110 
  1   2.824446   2.509213  -0.045570 
  6   3.118984   0.431661  -0.247435 
  1   4.083986   0.548798  -0.725945 
  6   2.592283  -0.958575  -0.043388 
  1   2.248595  -1.357032  -1.006499 
  1   3.401257  -1.622519   0.271019 
  6  -1.104795  -1.419144  -0.680915 
  1  -0.544367  -2.322264  -0.886379 
  6  -2.406337  -1.522553  -0.118110 
  1  -2.824445  -2.509213   0.045570 
  6  -1.462637   0.999808  -0.987512 
  1  -0.929588   1.949702  -0.936130 
  1  -1.898804   0.937531  -1.990366 
  6  -2.592283   0.958575   0.043388 
  1  -3.401256   1.622519  -0.271019 
  1  -2.248595   1.357032   1.006498 

