%chk=meso-TS_22_2_xp-12.chk
%nproc=24
%mem=48GB
#p uwb97xd guess=mix def2tzvp 
# scrf=(iefpcm,solvent=Cyclohexane,read) nosym 6d 10f 

endo-2
xp-pcm for eta=3

0 1
  6  -3.121693  -0.437935   0.248475 
  6  -0.608894  -0.218266  -1.036985 
  1  -4.085054  -0.548156   0.732789 
  1   0.360308  -0.124712  -1.506593 
  6   1.099596   1.410984   0.705395 
  6   0.608894   0.218266   1.036985 
  1   0.514105   2.311092   0.843328 
  1  -0.360308   0.124712   1.506593 
  6   1.483411  -1.000688   1.011498 
  1   1.950917  -1.047718   2.003099 
  1   0.891930  -1.909281   0.914020 
  6   2.425900   1.517947   0.109041 
  1   2.834101   2.505963  -0.067907 
  6   3.121693   0.437935  -0.248475 
  1   4.085054   0.548156  -0.732789 
  6   2.590248  -0.954860  -0.045775 
  1   2.235992  -1.344838  -1.008028 
  1   3.400959  -1.621706   0.255233 
  6  -1.099596  -1.410984  -0.705395 
  1  -0.514105  -2.311092  -0.843328 
  6  -2.425900  -1.517947  -0.109041 
  1  -2.834101  -2.505963   0.067907 
  6  -1.483411   1.000688  -1.011498 
  1  -0.891929   1.909281  -0.914020 
  1  -1.950917   1.047718  -2.003099 
  6  -2.590248   0.954860   0.045775 
  1  -3.400959   1.621706  -0.255234 
  1  -2.235992   1.344838   1.008028 

qrep pcmdoc geomview  nodis nocav g03defaults tsare=0.075 
nsfe=28
NVESolv=36  SolvMW=84.1595   Rsolv=2.815 
eps=2.0165 RhoS=0.778099999999998

   -3.121693    -0.437935     0.248475     1.700000     1.200000
   -0.608894    -0.218266    -1.036985     1.700000     1.200000
   -4.085054    -0.548156     0.732789     1.200000     1.200000
    0.360308    -0.124712    -1.506593     1.200000     1.200000
    1.099596     1.410984     0.705395     1.700000     1.200000
    0.608894     0.218266     1.036985     1.700000     1.200000
    0.514105     2.311092     0.843328     1.200000     1.200000
   -0.360308     0.124712     1.506593     1.200000     1.200000
    1.483411    -1.000688     1.011498     1.700000     1.200000
    1.950917    -1.047718     2.003099     1.200000     1.200000
    0.891930    -1.909281     0.914020     1.200000     1.200000
    2.425900     1.517947     0.109041     1.700000     1.200000
    2.834101     2.505963    -0.067907     1.200000     1.200000
    3.121693     0.437935    -0.248475     1.700000     1.200000
    4.085054     0.548156    -0.732789     1.200000     1.200000
    2.590248    -0.954860    -0.045775     1.700000     1.200000
    2.235992    -1.344838    -1.008028     1.200000     1.200000
    3.400959    -1.621706     0.255233     1.200000     1.200000
   -1.099596    -1.410984    -0.705395     1.700000     1.200000
   -0.514105    -2.311092    -0.843328     1.200000     1.200000
   -2.425900    -1.517947    -0.109041     1.700000     1.200000
   -2.834101    -2.505963     0.067907     1.200000     1.200000
   -1.483411     1.000688    -1.011498     1.700000     1.200000
   -0.891929     1.909281    -0.914020     1.200000     1.200000
   -1.950917     1.047718    -2.003099     1.200000     1.200000
   -2.590248     0.954860     0.045775     1.700000     1.200000
   -3.400959     1.621706    -0.255234     1.200000     1.200000
   -2.235992     1.344838     1.008028     1.200000     1.200000

--link1--
%chk=meso-TS_22_2_xp-115.chk
%nproc=24
%mem=48GB
#p uwb97xd guess=mix def2tzvp 
# scrf=(iefpcm,solvent=Cyclohexane,read) nosym 6d 10f 

endo-2
xp-pcm for eta=3

0 1
  6  -3.121693  -0.437935   0.248475 
  6  -0.608894  -0.218266  -1.036985 
  1  -4.085054  -0.548156   0.732789 
  1   0.360308  -0.124712  -1.506593 
  6   1.099596   1.410984   0.705395 
  6   0.608894   0.218266   1.036985 
  1   0.514105   2.311092   0.843328 
  1  -0.360308   0.124712   1.506593 
  6   1.483411  -1.000688   1.011498 
  1   1.950917  -1.047718   2.003099 
  1   0.891930  -1.909281   0.914020 
  6   2.425900   1.517947   0.109041 
  1   2.834101   2.505963  -0.067907 
  6   3.121693   0.437935  -0.248475 
  1   4.085054   0.548156  -0.732789 
  6   2.590248  -0.954860  -0.045775 
  1   2.235992  -1.344838  -1.008028 
  1   3.400959  -1.621706   0.255233 
  6  -1.099596  -1.410984  -0.705395 
  1  -0.514105  -2.311092  -0.843328 
  6  -2.425900  -1.517947  -0.109041 
  1  -2.834101  -2.505963   0.067907 
  6  -1.483411   1.000688  -1.011498 
  1  -0.891929   1.909281  -0.914020 
  1  -1.950917   1.047718  -2.003099 
  6  -2.590248   0.954860   0.045775 
  1  -3.400959   1.621706  -0.255234 
  1  -2.235992   1.344838   1.008028 

qrep pcmdoc geomview  nodis nocav g03defaults tsare=0.075 
nsfe=28
NVESolv=36  SolvMW=84.1595   Rsolv=2.815 
eps=2.08074995319988 RhoS=0.87957140140931

   -3.121693    -0.437935     0.248475     1.700000     1.150000
   -0.608894    -0.218266    -1.036985     1.700000     1.150000
   -4.085054    -0.548156     0.732789     1.200000     1.150000
    0.360308    -0.124712    -1.506593     1.200000     1.150000
    1.099596     1.410984     0.705395     1.700000     1.150000
    0.608894     0.218266     1.036985     1.700000     1.150000
    0.514105     2.311092     0.843328     1.200000     1.150000
   -0.360308     0.124712     1.506593     1.200000     1.150000
    1.483411    -1.000688     1.011498     1.700000     1.150000
    1.950917    -1.047718     2.003099     1.200000     1.150000
    0.891930    -1.909281     0.914020     1.200000     1.150000
    2.425900     1.517947     0.109041     1.700000     1.150000
    2.834101     2.505963    -0.067907     1.200000     1.150000
    3.121693     0.437935    -0.248475     1.700000     1.150000
    4.085054     0.548156    -0.732789     1.200000     1.150000
    2.590248    -0.954860    -0.045775     1.700000     1.150000
    2.235992    -1.344838    -1.008028     1.200000     1.150000
    3.400959    -1.621706     0.255233     1.200000     1.150000
   -1.099596    -1.410984    -0.705395     1.700000     1.150000
   -0.514105    -2.311092    -0.843328     1.200000     1.150000
   -2.425900    -1.517947    -0.109041     1.700000     1.150000
   -2.834101    -2.505963     0.067907     1.200000     1.150000
   -1.483411     1.000688    -1.011498     1.700000     1.150000
   -0.891929     1.909281    -0.914020     1.200000     1.150000
   -1.950917     1.047718    -2.003099     1.200000     1.150000
   -2.590248     0.954860     0.045775     1.700000     1.150000
   -3.400959     1.621706    -0.255234     1.200000     1.150000
   -2.235992     1.344838     1.008028     1.200000     1.150000

--link1--
%chk=meso-TS_22_2_xp-110.chk
%nproc=24
%mem=48GB
#p uwb97xd guess=mix def2tzvp 
# scrf=(iefpcm,solvent=Cyclohexane,read) nosym 6d 10f 

endo-2
xp-pcm for eta=3

0 1
  6  -3.121693  -0.437935   0.248475 
  6  -0.608894  -0.218266  -1.036985 
  1  -4.085054  -0.548156   0.732789 
  1   0.360308  -0.124712  -1.506593 
  6   1.099596   1.410984   0.705395 
  6   0.608894   0.218266   1.036985 
  1   0.514105   2.311092   0.843328 
  1  -0.360308   0.124712   1.506593 
  6   1.483411  -1.000688   1.011498 
  1   1.950917  -1.047718   2.003099 
  1   0.891930  -1.909281   0.914020 
  6   2.425900   1.517947   0.109041 
  1   2.834101   2.505963  -0.067907 
  6   3.121693   0.437935  -0.248475 
  1   4.085054   0.548156  -0.732789 
  6   2.590248  -0.954860  -0.045775 
  1   2.235992  -1.344838  -1.008028 
  1   3.400959  -1.621706   0.255233 
  6  -1.099596  -1.410984  -0.705395 
  1  -0.514105  -2.311092  -0.843328 
  6  -2.425900  -1.517947  -0.109041 
  1  -2.834101  -2.505963   0.067907 
  6  -1.483411   1.000688  -1.011498 
  1  -0.891929   1.909281  -0.914020 
  1  -1.950917   1.047718  -2.003099 
  6  -2.590248   0.954860   0.045775 
  1  -3.400959   1.621706  -0.255234 
  1  -2.235992   1.344838   1.008028 

qrep pcmdoc geomview  nodis nocav g03defaults tsare=0.075 
nsfe=28
NVESolv=36  SolvMW=84.1595   Rsolv=2.815 
eps=2.14797859684703 RhoS=0.992403372535132

   -3.121693    -0.437935     0.248475     1.700000     1.100000
   -0.608894    -0.218266    -1.036985     1.700000     1.100000
   -4.085054    -0.548156     0.732789     1.200000     1.100000
    0.360308    -0.124712    -1.506593     1.200000     1.100000
    1.099596     1.410984     0.705395     1.700000     1.100000
    0.608894     0.218266     1.036985     1.700000     1.100000
    0.514105     2.311092     0.843328     1.200000     1.100000
   -0.360308     0.124712     1.506593     1.200000     1.100000
    1.483411    -1.000688     1.011498     1.700000     1.100000
    1.950917    -1.047718     2.003099     1.200000     1.100000
    0.891930    -1.909281     0.914020     1.200000     1.100000
    2.425900     1.517947     0.109041     1.700000     1.100000
    2.834101     2.505963    -0.067907     1.200000     1.100000
    3.121693     0.437935    -0.248475     1.700000     1.100000
    4.085054     0.548156    -0.732789     1.200000     1.100000
    2.590248    -0.954860    -0.045775     1.700000     1.100000
    2.235992    -1.344838    -1.008028     1.200000     1.100000
    3.400959    -1.621706     0.255233     1.200000     1.100000
   -1.099596    -1.410984    -0.705395     1.700000     1.100000
   -0.514105    -2.311092    -0.843328     1.200000     1.100000
   -2.425900    -1.517947    -0.109041     1.700000     1.100000
   -2.834101    -2.505963     0.067907     1.200000     1.100000
   -1.483411     1.000688    -1.011498     1.700000     1.100000
   -0.891929     1.909281    -0.914020     1.200000     1.100000
   -1.950917     1.047718    -2.003099     1.200000     1.100000
   -2.590248     0.954860     0.045775     1.700000     1.100000
   -3.400959     1.621706    -0.255234     1.200000     1.100000
   -2.235992     1.344838     1.008028     1.200000     1.100000

--link1--
%chk=meso-TS_22_2_xp-105.chk
%nproc=24
%mem=48GB
#p uwb97xd guess=mix def2tzvp 
# scrf=(iefpcm,solvent=Cyclohexane,read) nosym 6d 10f 

endo-2
xp-pcm for eta=3

0 1
  6  -3.121693  -0.437935   0.248475 
  6  -0.608894  -0.218266  -1.036985 
  1  -4.085054  -0.548156   0.732789 
  1   0.360308  -0.124712  -1.506593 
  6   1.099596   1.410984   0.705395 
  6   0.608894   0.218266   1.036985 
  1   0.514105   2.311092   0.843328 
  1  -0.360308   0.124712   1.506593 
  6   1.483411  -1.000688   1.011498 
  1   1.950917  -1.047718   2.003099 
  1   0.891930  -1.909281   0.914020 
  6   2.425900   1.517947   0.109041 
  1   2.834101   2.505963  -0.067907 
  6   3.121693   0.437935  -0.248475 
  1   4.085054   0.548156  -0.732789 
  6   2.590248  -0.954860  -0.045775 
  1   2.235992  -1.344838  -1.008028 
  1   3.400959  -1.621706   0.255233 
  6  -1.099596  -1.410984  -0.705395 
  1  -0.514105  -2.311092  -0.843328 
  6  -2.425900  -1.517947  -0.109041 
  1  -2.834101  -2.505963   0.067907 
  6  -1.483411   1.000688  -1.011498 
  1  -0.891929   1.909281  -0.914020 
  1  -1.950917   1.047718  -2.003099 
  6  -2.590248   0.954860   0.045775 
  1  -3.400959   1.621706  -0.255234 
  1  -2.235992   1.344838   1.008028 

qrep pcmdoc geomview  nodis nocav g03defaults tsare=0.075 
nsfe=28
NVESolv=36  SolvMW=84.1595   Rsolv=2.815 
eps=2.22376880117094 RhoS=1.12776705486046

   -3.121693    -0.437935     0.248475     1.700000     1.050000
   -0.608894    -0.218266    -1.036985     1.700000     1.050000
   -4.085054    -0.548156     0.732789     1.200000     1.050000
    0.360308    -0.124712    -1.506593     1.200000     1.050000
    1.099596     1.410984     0.705395     1.700000     1.050000
    0.608894     0.218266     1.036985     1.700000     1.050000
    0.514105     2.311092     0.843328     1.200000     1.050000
   -0.360308     0.124712     1.506593     1.200000     1.050000
    1.483411    -1.000688     1.011498     1.700000     1.050000
    1.950917    -1.047718     2.003099     1.200000     1.050000
    0.891930    -1.909281     0.914020     1.200000     1.050000
    2.425900     1.517947     0.109041     1.700000     1.050000
    2.834101     2.505963    -0.067907     1.200000     1.050000
    3.121693     0.437935    -0.248475     1.700000     1.050000
    4.085054     0.548156    -0.732789     1.200000     1.050000
    2.590248    -0.954860    -0.045775     1.700000     1.050000
    2.235992    -1.344838    -1.008028     1.200000     1.050000
    3.400959    -1.621706     0.255233     1.200000     1.050000
   -1.099596    -1.410984    -0.705395     1.700000     1.050000
   -0.514105    -2.311092    -0.843328     1.200000     1.050000
   -2.425900    -1.517947    -0.109041     1.700000     1.050000
   -2.834101    -2.505963     0.067907     1.200000     1.050000
   -1.483411     1.000688    -1.011498     1.700000     1.050000
   -0.891929     1.909281    -0.914020     1.200000     1.050000
   -1.950917     1.047718    -2.003099     1.200000     1.050000
   -2.590248     0.954860     0.045775     1.700000     1.050000
   -3.400959     1.621706    -0.255234     1.200000     1.050000
   -2.235992     1.344838     1.008028     1.200000     1.050000

--link1--
%chk=meso-TS_22_2_xp-100.chk
%nproc=24
%mem=48GB
#p uwb97xd guess=mix def2tzvp 
# scrf=(iefpcm,solvent=Cyclohexane,read) nosym 6d 10f 

endo-2
xp-pcm for eta=3

0 1
  6  -3.121693  -0.437935   0.248475 
  6  -0.608894  -0.218266  -1.036985 
  1  -4.085054  -0.548156   0.732789 
  1   0.360308  -0.124712  -1.506593 
  6   1.099596   1.410984   0.705395 
  6   0.608894   0.218266   1.036985 
  1   0.514105   2.311092   0.843328 
  1  -0.360308   0.124712   1.506593 
  6   1.483411  -1.000688   1.011498 
  1   1.950917  -1.047718   2.003099 
  1   0.891930  -1.909281   0.914020 
  6   2.425900   1.517947   0.109041 
  1   2.834101   2.505963  -0.067907 
  6   3.121693   0.437935  -0.248475 
  1   4.085054   0.548156  -0.732789 
  6   2.590248  -0.954860  -0.045775 
  1   2.235992  -1.344838  -1.008028 
  1   3.400959  -1.621706   0.255233 
  6  -1.099596  -1.410984  -0.705395 
  1  -0.514105  -2.311092  -0.843328 
  6  -2.425900  -1.517947  -0.109041 
  1  -2.834101  -2.505963   0.067907 
  6  -1.483411   1.000688  -1.011498 
  1  -0.891929   1.909281  -0.914020 
  1  -1.950917   1.047718  -2.003099 
  6  -2.590248   0.954860   0.045775 
  1  -3.400959   1.621706  -0.255234 
  1  -2.235992   1.344838   1.008028 

qrep pcmdoc geomview  nodis nocav g03defaults tsare=0.075 
nsfe=28
NVESolv=36  SolvMW=84.1595   Rsolv=2.815 
eps=2.30480546666792 RhoS=1.28207131826017

   -3.121693    -0.437935     0.248475     1.700000     1.000000
   -0.608894    -0.218266    -1.036985     1.700000     1.000000
   -4.085054    -0.548156     0.732789     1.200000     1.000000
    0.360308    -0.124712    -1.506593     1.200000     1.000000
    1.099596     1.410984     0.705395     1.700000     1.000000
    0.608894     0.218266     1.036985     1.700000     1.000000
    0.514105     2.311092     0.843328     1.200000     1.000000
   -0.360308     0.124712     1.506593     1.200000     1.000000
    1.483411    -1.000688     1.011498     1.700000     1.000000
    1.950917    -1.047718     2.003099     1.200000     1.000000
    0.891930    -1.909281     0.914020     1.200000     1.000000
    2.425900     1.517947     0.109041     1.700000     1.000000
    2.834101     2.505963    -0.067907     1.200000     1.000000
    3.121693     0.437935    -0.248475     1.700000     1.000000
    4.085054     0.548156    -0.732789     1.200000     1.000000
    2.590248    -0.954860    -0.045775     1.700000     1.000000
    2.235992    -1.344838    -1.008028     1.200000     1.000000
    3.400959    -1.621706     0.255233     1.200000     1.000000
   -1.099596    -1.410984    -0.705395     1.700000     1.000000
   -0.514105    -2.311092    -0.843328     1.200000     1.000000
   -2.425900    -1.517947    -0.109041     1.700000     1.000000
   -2.834101    -2.505963     0.067907     1.200000     1.000000
   -1.483411     1.000688    -1.011498     1.700000     1.000000
   -0.891929     1.909281    -0.914020     1.200000     1.000000
   -1.950917     1.047718    -2.003099     1.200000     1.000000
   -2.590248     0.954860     0.045775     1.700000     1.000000
   -3.400959     1.621706    -0.255234     1.200000     1.000000
   -2.235992     1.344838     1.008028     1.200000     1.000000

--link1--
%chk=meso-TS_22_2_xp-0975.chk
%nproc=24
%mem=48GB
#p uwb97xd guess=mix def2tzvp 
# scrf=(iefpcm,solvent=Cyclohexane,read) nosym 6d 10f 

endo-2
xp-pcm for eta=3

0 1
  6  -3.121693  -0.437935   0.248475 
  6  -0.608894  -0.218266  -1.036985 
  1  -4.085054  -0.548156   0.732789 
  1   0.360308  -0.124712  -1.506593 
  6   1.099596   1.410984   0.705395 
  6   0.608894   0.218266   1.036985 
  1   0.514105   2.311092   0.843328 
  1  -0.360308   0.124712   1.506593 
  6   1.483411  -1.000688   1.011498 
  1   1.950917  -1.047718   2.003099 
  1   0.891930  -1.909281   0.914020 
  6   2.425900   1.517947   0.109041 
  1   2.834101   2.505963  -0.067907 
  6   3.121693   0.437935  -0.248475 
  1   4.085054   0.548156  -0.732789 
  6   2.590248  -0.954860  -0.045775 
  1   2.235992  -1.344838  -1.008028 
  1   3.400959  -1.621706   0.255233 
  6  -1.099596  -1.410984  -0.705395 
  1  -0.514105  -2.311092  -0.843328 
  6  -2.425900  -1.517947  -0.109041 
  1  -2.834101  -2.505963   0.067907 
  6  -1.483411   1.000688  -1.011498 
  1  -0.891929   1.909281  -0.914020 
  1  -1.950917   1.047718  -2.003099 
  6  -2.590248   0.954860   0.045775 
  1  -3.400959   1.621706  -0.255234 
  1  -2.235992   1.344838   1.008028 

qrep pcmdoc geomview  nodis nocav g03defaults tsare=0.075 
nsfe=28
NVESolv=36  SolvMW=84.1595   Rsolv=2.815 
eps=2.34745273026226 RhoS=1.36724935387803

   -3.121693    -0.437935     0.248475     1.700000     0.975000
   -0.608894    -0.218266    -1.036985     1.700000     0.975000
   -4.085054    -0.548156     0.732789     1.200000     0.975000
    0.360308    -0.124712    -1.506593     1.200000     0.975000
    1.099596     1.410984     0.705395     1.700000     0.975000
    0.608894     0.218266     1.036985     1.700000     0.975000
    0.514105     2.311092     0.843328     1.200000     0.975000
   -0.360308     0.124712     1.506593     1.200000     0.975000
    1.483411    -1.000688     1.011498     1.700000     0.975000
    1.950917    -1.047718     2.003099     1.200000     0.975000
    0.891930    -1.909281     0.914020     1.200000     0.975000
    2.425900     1.517947     0.109041     1.700000     0.975000
    2.834101     2.505963    -0.067907     1.200000     0.975000
    3.121693     0.437935    -0.248475     1.700000     0.975000
    4.085054     0.548156    -0.732789     1.200000     0.975000
    2.590248    -0.954860    -0.045775     1.700000     0.975000
    2.235992    -1.344838    -1.008028     1.200000     0.975000
    3.400959    -1.621706     0.255233     1.200000     0.975000
   -1.099596    -1.410984    -0.705395     1.700000     0.975000
   -0.514105    -2.311092    -0.843328     1.200000     0.975000
   -2.425900    -1.517947    -0.109041     1.700000     0.975000
   -2.834101    -2.505963     0.067907     1.200000     0.975000
   -1.483411     1.000688    -1.011498     1.700000     0.975000
   -0.891929     1.909281    -0.914020     1.200000     0.975000
   -1.950917     1.047718    -2.003099     1.200000     0.975000
   -2.590248     0.954860     0.045775     1.700000     0.975000
   -3.400959     1.621706    -0.255234     1.200000     0.975000
   -2.235992     1.344838     1.008028     1.200000     0.975000

--link1--
%chk=meso-TS_22_2_xp-095.chk
%nproc=24
%mem=48GB
#p uwb97xd guess=mix def2tzvp 
# scrf=(iefpcm,solvent=Cyclohexane,read) nosym 6d 10f 

endo-2
xp-pcm for eta=3

0 1
  6  -3.121693  -0.437935   0.248475 
  6  -0.608894  -0.218266  -1.036985 
  1  -4.085054  -0.548156   0.732789 
  1   0.360308  -0.124712  -1.506593 
  6   1.099596   1.410984   0.705395 
  6   0.608894   0.218266   1.036985 
  1   0.514105   2.311092   0.843328 
  1  -0.360308   0.124712   1.506593 
  6   1.483411  -1.000688   1.011498 
  1   1.950917  -1.047718   2.003099 
  1   0.891930  -1.909281   0.914020 
  6   2.425900   1.517947   0.109041 
  1   2.834101   2.505963  -0.067907 
  6   3.121693   0.437935  -0.248475 
  1   4.085054   0.548156  -0.732789 
  6   2.590248  -0.954860  -0.045775 
  1   2.235992  -1.344838  -1.008028 
  1   3.400959  -1.621706   0.255233 
  6  -1.099596  -1.410984  -0.705395 
  1  -0.514105  -2.311092  -0.843328 
  6  -2.425900  -1.517947  -0.109041 
  1  -2.834101  -2.505963   0.067907 
  6  -1.483411   1.000688  -1.011498 
  1  -0.891929   1.909281  -0.914020 
  1  -1.950917   1.047718  -2.003099 
  6  -2.590248   0.954860   0.045775 
  1  -3.400959   1.621706  -0.255234 
  1  -2.235992   1.344838   1.008028 

qrep pcmdoc geomview  nodis nocav g03defaults tsare=0.075 
nsfe=28
NVESolv=36  SolvMW=84.1595   Rsolv=2.815 
eps=2.39339884323873 RhoS=1.4620813611373

   -3.121693    -0.437935     0.248475     1.700000     0.950000
   -0.608894    -0.218266    -1.036985     1.700000     0.950000
   -4.085054    -0.548156     0.732789     1.200000     0.950000
    0.360308    -0.124712    -1.506593     1.200000     0.950000
    1.099596     1.410984     0.705395     1.700000     0.950000
    0.608894     0.218266     1.036985     1.700000     0.950000
    0.514105     2.311092     0.843328     1.200000     0.950000
   -0.360308     0.124712     1.506593     1.200000     0.950000
    1.483411    -1.000688     1.011498     1.700000     0.950000
    1.950917    -1.047718     2.003099     1.200000     0.950000
    0.891930    -1.909281     0.914020     1.200000     0.950000
    2.425900     1.517947     0.109041     1.700000     0.950000
    2.834101     2.505963    -0.067907     1.200000     0.950000
    3.121693     0.437935    -0.248475     1.700000     0.950000
    4.085054     0.548156    -0.732789     1.200000     0.950000
    2.590248    -0.954860    -0.045775     1.700000     0.950000
    2.235992    -1.344838    -1.008028     1.200000     0.950000
    3.400959    -1.621706     0.255233     1.200000     0.950000
   -1.099596    -1.410984    -0.705395     1.700000     0.950000
   -0.514105    -2.311092    -0.843328     1.200000     0.950000
   -2.425900    -1.517947    -0.109041     1.700000     0.950000
   -2.834101    -2.505963     0.067907     1.200000     0.950000
   -1.483411     1.000688    -1.011498     1.700000     0.950000
   -0.891929     1.909281    -0.914020     1.200000     0.950000
   -1.950917     1.047718    -2.003099     1.200000     0.950000
   -2.590248     0.954860     0.045775     1.700000     0.950000
   -3.400959     1.621706    -0.255234     1.200000     0.950000
   -2.235992     1.344838     1.008028     1.200000     0.950000

