%nproc=24
%mem=48GB
#p uwb97xd guess=mix def2tzvp 

endo-2

0 1
  6  -3.119483  -0.439385   0.281012 
  6  -0.811579  -0.271533  -1.354475 
  1  -4.037393  -0.518691   0.851865 
  1   0.113021  -0.198312  -1.914300 
  6   1.223818   1.439516   0.869160 
  6   0.811579   0.271533   1.354475 
  1   0.637290   2.338076   1.020326 
  1  -0.113021   0.198312   1.914300 
  6   1.639075  -0.972028   1.198930 
  1   2.246291  -1.087902   2.106279 
  1   0.990780  -1.848497   1.151919 
  6   2.483176   1.535243   0.128905 
  1   2.884125   2.517357  -0.091495 
  6   3.119483   0.439385  -0.281012 
  1   4.037393   0.518691  -0.851866 
  6   2.549688  -0.930246  -0.031017 
  1   1.985795  -1.234708  -0.921250 
  1   3.352670  -1.661503   0.078172 
  6  -1.223818  -1.439516  -0.869160 
  1  -0.637290  -2.338076  -1.020326 
  6  -2.483176  -1.535243  -0.128905 
  1  -2.884125  -2.517357   0.091495 
  6  -1.639075   0.972028  -1.198930 
  1  -0.990780   1.848497  -1.151919 
  1  -2.246291   1.087902  -2.106279 
  6  -2.549688   0.930246   0.031017 
  1  -3.352670   1.661503  -0.078172 
  1  -1.985795   1.234708   0.921250 

