%nproc=24
%mem=48GB
#p uwb97xd guess=mix def2tzvp 

endo-2

0 1
  6  -3.111354  -0.438024   0.288476 
  6  -0.838887  -0.280035  -1.396455 
  1  -4.018848  -0.512178   0.876391 
  1   0.074286  -0.210856  -1.975395 
  6   1.243587   1.445746   0.898709 
  6   0.838887   0.280035   1.396455 
  1   0.661682   2.345979   1.057759 
  1  -0.074286   0.210856   1.975395 
  6   1.663200  -0.964107   1.227344 
  1   2.298573  -1.072496   2.116318 
  1   1.015835  -1.842319   1.205078 
  6   2.490124   1.536957   0.136281 
  1   2.892627   2.517404  -0.088621 
  6   3.111354   0.438024  -0.288476 
  1   4.018848   0.512178  -0.876391 
  6   2.534434  -0.926987  -0.030159 
  1   1.936253  -1.217234  -0.902586 
  1   3.331183  -1.668816   0.048441 
  6  -1.243587  -1.445746  -0.898709 
  1  -0.661682  -2.345979  -1.057759 
  6  -2.490124  -1.536957  -0.136281 
  1  -2.892627  -2.517404   0.088621 
  6  -1.663200   0.964107  -1.227344 
  1  -1.015835   1.842319  -1.205078 
  1  -2.298573   1.072496  -2.116318 
  6  -2.534434   0.926987   0.030159 
  1  -3.331183   1.668816  -0.048441 
  1  -1.936253   1.217234   0.902586 

