%nproc=24
%mem=48GB
#p uwb97xd guess=mix def2tzvp 

endo-2

0 1
  6  -3.118410  -0.423256   0.247332 
  6  -0.400552  -0.117576  -0.669408 
  1  -4.095892  -0.546022   0.697290 
  1   0.334041  -0.110240  -1.479087 
  6   1.105291   1.435120   0.638434 
  6   0.400552   0.117576   0.669408 
  1   0.574535   2.331119   0.934689 
  1  -0.334041   0.110240   1.479087 
  6   1.430095  -0.988464   0.949402 
  1   1.827742  -0.827371   1.954782 
  1   0.949826  -1.968321   0.950503 
  6   2.392100   1.530646   0.135722 
  1   2.842925   2.511815   0.033035 
  6   3.118410   0.423256  -0.247332 
  1   4.095892   0.546022  -0.697290 
  6   2.589414  -0.961586  -0.047388 
  1   2.266745  -1.373708  -1.013057 
  1   3.391828  -1.621837   0.293267 
  6  -1.105291  -1.435120  -0.638434 
  1  -0.574535  -2.331119  -0.934689 
  6  -2.392100  -1.530646  -0.135722 
  1  -2.842925  -2.511815  -0.033035 
  6  -1.430095   0.988464  -0.949402 
  1  -0.949826   1.968321  -0.950503 
  1  -1.827742   0.827371  -1.954782 
  6  -2.589414   0.961586   0.047388 
  1  -3.391828   1.621837  -0.293267 
  1  -2.266745   1.373708   1.013057 

