%nproc=24
%mem=48GB
#p uwb97xd guess=mix def2tzvp 

endo-2

0 1
  6  -3.125716  -0.440978   0.270604 
  6  -0.764956  -0.259235  -1.286409 
  1  -4.058512  -0.527829   0.815709 
  1   0.176050  -0.180561  -1.817052 
  6   1.190843   1.431055   0.823776 
  6   0.764956   0.259235   1.286409 
  1   0.599752   2.328066   0.965494 
  1  -0.176050   0.180561   1.817052 
  6   1.594875  -0.984626   1.150152 
  1   2.156222  -1.113793   2.084526 
  1   0.946262  -1.857408   1.063673 
  6   2.468178   1.532445   0.116620 
  1   2.867487   2.516684  -0.097237 
  6   3.125716   0.440978  -0.270604 
  1   4.058512   0.527829  -0.815709 
  6   2.566903  -0.935493  -0.033026 
  1   2.059865  -1.262257  -0.949209 
  1   3.377104  -1.649532   0.126360 
  6  -1.190843  -1.431055  -0.823776 
  1  -0.599752  -2.328066  -0.965494 
  6  -2.468178  -1.532445  -0.116620 
  1  -2.867487  -2.516684   0.097237 
  6  -1.594875   0.984626  -1.150152 
  1  -0.946262   1.857408  -1.063673 
  1  -2.156222   1.113793  -2.084526 
  6  -2.566903   0.935493   0.033026 
  1  -3.377104   1.649532  -0.126360 
  1  -2.059865   1.262257   0.949209 

