%chk=meso-TS_0_1_xp-12.chk
%nproc=24
%mem=48GB
#p uwb97xd guess=mix def2tzvp 
# scrf=(iefpcm,solvent=Cyclohexane,read) nosym 6d 10f 

endo-2
xp-pcm for eta=3

0 1
  6  -3.118984  -0.431661   0.247435 
  6  -0.498940  -0.160927  -0.842197 
  1  -4.083986  -0.548798   0.725945 
  1   0.353927  -0.115768  -1.511796 
  6   1.104795   1.419144   0.680915 
  6   0.498940   0.160927   0.842197 
  1   0.544367   2.322264   0.886379 
  1  -0.353927   0.115768   1.511797 
  6   1.462637  -0.999808   0.987512 
  1   1.898804  -0.937531   1.990366 
  1   0.929588  -1.949702   0.936130 
  6   2.406337   1.522553   0.118110 
  1   2.824446   2.509213  -0.045570 
  6   3.118984   0.431661  -0.247435 
  1   4.083986   0.548798  -0.725945 
  6   2.592283  -0.958575  -0.043388 
  1   2.248595  -1.357032  -1.006499 
  1   3.401257  -1.622519   0.271019 
  6  -1.104795  -1.419144  -0.680915 
  1  -0.544367  -2.322264  -0.886379 
  6  -2.406337  -1.522553  -0.118110 
  1  -2.824445  -2.509213   0.045570 
  6  -1.462637   0.999808  -0.987512 
  1  -0.929588   1.949702  -0.936130 
  1  -1.898804   0.937531  -1.990366 
  6  -2.592283   0.958575   0.043388 
  1  -3.401256   1.622519  -0.271019 
  1  -2.248595   1.357032   1.006498 

qrep pcmdoc geomview  nodis nocav g03defaults tsare=0.075 
nsfe=28
NVESolv=36  SolvMW=84.1595   Rsolv=2.815 
eps=2.0165 RhoS=0.778099999999998

   -3.118984    -0.431661     0.247435     1.700000     1.200000
   -0.498940    -0.160927    -0.842197     1.700000     1.200000
   -4.083986    -0.548798     0.725945     1.200000     1.200000
    0.353927    -0.115768    -1.511796     1.200000     1.200000
    1.104795     1.419144     0.680915     1.700000     1.200000
    0.498940     0.160927     0.842197     1.700000     1.200000
    0.544367     2.322264     0.886379     1.200000     1.200000
   -0.353927     0.115768     1.511797     1.200000     1.200000
    1.462637    -0.999808     0.987512     1.700000     1.200000
    1.898804    -0.937531     1.990366     1.200000     1.200000
    0.929588    -1.949702     0.936130     1.200000     1.200000
    2.406337     1.522553     0.118110     1.700000     1.200000
    2.824446     2.509213    -0.045570     1.200000     1.200000
    3.118984     0.431661    -0.247435     1.700000     1.200000
    4.083986     0.548798    -0.725945     1.200000     1.200000
    2.592283    -0.958575    -0.043388     1.700000     1.200000
    2.248595    -1.357032    -1.006499     1.200000     1.200000
    3.401257    -1.622519     0.271019     1.200000     1.200000
   -1.104795    -1.419144    -0.680915     1.700000     1.200000
   -0.544367    -2.322264    -0.886379     1.200000     1.200000
   -2.406337    -1.522553    -0.118110     1.700000     1.200000
   -2.824445    -2.509213     0.045570     1.200000     1.200000
   -1.462637     0.999808    -0.987512     1.700000     1.200000
   -0.929588     1.949702    -0.936130     1.200000     1.200000
   -1.898804     0.937531    -1.990366     1.200000     1.200000
   -2.592283     0.958575     0.043388     1.700000     1.200000
   -3.401256     1.622519    -0.271019     1.200000     1.200000
   -2.248595     1.357032     1.006498     1.200000     1.200000

--link1--
%chk=meso-TS_0_1_xp-115.chk
%nproc=24
%mem=48GB
#p uwb97xd guess=mix def2tzvp 
# scrf=(iefpcm,solvent=Cyclohexane,read) nosym 6d 10f 

endo-2
xp-pcm for eta=3

0 1
  6  -3.118984  -0.431661   0.247435 
  6  -0.498940  -0.160927  -0.842197 
  1  -4.083986  -0.548798   0.725945 
  1   0.353927  -0.115768  -1.511796 
  6   1.104795   1.419144   0.680915 
  6   0.498940   0.160927   0.842197 
  1   0.544367   2.322264   0.886379 
  1  -0.353927   0.115768   1.511797 
  6   1.462637  -0.999808   0.987512 
  1   1.898804  -0.937531   1.990366 
  1   0.929588  -1.949702   0.936130 
  6   2.406337   1.522553   0.118110 
  1   2.824446   2.509213  -0.045570 
  6   3.118984   0.431661  -0.247435 
  1   4.083986   0.548798  -0.725945 
  6   2.592283  -0.958575  -0.043388 
  1   2.248595  -1.357032  -1.006499 
  1   3.401257  -1.622519   0.271019 
  6  -1.104795  -1.419144  -0.680915 
  1  -0.544367  -2.322264  -0.886379 
  6  -2.406337  -1.522553  -0.118110 
  1  -2.824445  -2.509213   0.045570 
  6  -1.462637   0.999808  -0.987512 
  1  -0.929588   1.949702  -0.936130 
  1  -1.898804   0.937531  -1.990366 
  6  -2.592283   0.958575   0.043388 
  1  -3.401256   1.622519  -0.271019 
  1  -2.248595   1.357032   1.006498 

qrep pcmdoc geomview  nodis nocav g03defaults tsare=0.075 
nsfe=28
NVESolv=36  SolvMW=84.1595   Rsolv=2.815 
eps=2.08074995319988 RhoS=0.87957140140931

   -3.118984    -0.431661     0.247435     1.700000     1.150000
   -0.498940    -0.160927    -0.842197     1.700000     1.150000
   -4.083986    -0.548798     0.725945     1.200000     1.150000
    0.353927    -0.115768    -1.511796     1.200000     1.150000
    1.104795     1.419144     0.680915     1.700000     1.150000
    0.498940     0.160927     0.842197     1.700000     1.150000
    0.544367     2.322264     0.886379     1.200000     1.150000
   -0.353927     0.115768     1.511797     1.200000     1.150000
    1.462637    -0.999808     0.987512     1.700000     1.150000
    1.898804    -0.937531     1.990366     1.200000     1.150000
    0.929588    -1.949702     0.936130     1.200000     1.150000
    2.406337     1.522553     0.118110     1.700000     1.150000
    2.824446     2.509213    -0.045570     1.200000     1.150000
    3.118984     0.431661    -0.247435     1.700000     1.150000
    4.083986     0.548798    -0.725945     1.200000     1.150000
    2.592283    -0.958575    -0.043388     1.700000     1.150000
    2.248595    -1.357032    -1.006499     1.200000     1.150000
    3.401257    -1.622519     0.271019     1.200000     1.150000
   -1.104795    -1.419144    -0.680915     1.700000     1.150000
   -0.544367    -2.322264    -0.886379     1.200000     1.150000
   -2.406337    -1.522553    -0.118110     1.700000     1.150000
   -2.824445    -2.509213     0.045570     1.200000     1.150000
   -1.462637     0.999808    -0.987512     1.700000     1.150000
   -0.929588     1.949702    -0.936130     1.200000     1.150000
   -1.898804     0.937531    -1.990366     1.200000     1.150000
   -2.592283     0.958575     0.043388     1.700000     1.150000
   -3.401256     1.622519    -0.271019     1.200000     1.150000
   -2.248595     1.357032     1.006498     1.200000     1.150000

--link1--
%chk=meso-TS_0_1_xp-110.chk
%nproc=24
%mem=48GB
#p uwb97xd guess=mix def2tzvp 
# scrf=(iefpcm,solvent=Cyclohexane,read) nosym 6d 10f 

endo-2
xp-pcm for eta=3

0 1
  6  -3.118984  -0.431661   0.247435 
  6  -0.498940  -0.160927  -0.842197 
  1  -4.083986  -0.548798   0.725945 
  1   0.353927  -0.115768  -1.511796 
  6   1.104795   1.419144   0.680915 
  6   0.498940   0.160927   0.842197 
  1   0.544367   2.322264   0.886379 
  1  -0.353927   0.115768   1.511797 
  6   1.462637  -0.999808   0.987512 
  1   1.898804  -0.937531   1.990366 
  1   0.929588  -1.949702   0.936130 
  6   2.406337   1.522553   0.118110 
  1   2.824446   2.509213  -0.045570 
  6   3.118984   0.431661  -0.247435 
  1   4.083986   0.548798  -0.725945 
  6   2.592283  -0.958575  -0.043388 
  1   2.248595  -1.357032  -1.006499 
  1   3.401257  -1.622519   0.271019 
  6  -1.104795  -1.419144  -0.680915 
  1  -0.544367  -2.322264  -0.886379 
  6  -2.406337  -1.522553  -0.118110 
  1  -2.824445  -2.509213   0.045570 
  6  -1.462637   0.999808  -0.987512 
  1  -0.929588   1.949702  -0.936130 
  1  -1.898804   0.937531  -1.990366 
  6  -2.592283   0.958575   0.043388 
  1  -3.401256   1.622519  -0.271019 
  1  -2.248595   1.357032   1.006498 

qrep pcmdoc geomview  nodis nocav g03defaults tsare=0.075 
nsfe=28
NVESolv=36  SolvMW=84.1595   Rsolv=2.815 
eps=2.14797859684703 RhoS=0.992403372535132

   -3.118984    -0.431661     0.247435     1.700000     1.100000
   -0.498940    -0.160927    -0.842197     1.700000     1.100000
   -4.083986    -0.548798     0.725945     1.200000     1.100000
    0.353927    -0.115768    -1.511796     1.200000     1.100000
    1.104795     1.419144     0.680915     1.700000     1.100000
    0.498940     0.160927     0.842197     1.700000     1.100000
    0.544367     2.322264     0.886379     1.200000     1.100000
   -0.353927     0.115768     1.511797     1.200000     1.100000
    1.462637    -0.999808     0.987512     1.700000     1.100000
    1.898804    -0.937531     1.990366     1.200000     1.100000
    0.929588    -1.949702     0.936130     1.200000     1.100000
    2.406337     1.522553     0.118110     1.700000     1.100000
    2.824446     2.509213    -0.045570     1.200000     1.100000
    3.118984     0.431661    -0.247435     1.700000     1.100000
    4.083986     0.548798    -0.725945     1.200000     1.100000
    2.592283    -0.958575    -0.043388     1.700000     1.100000
    2.248595    -1.357032    -1.006499     1.200000     1.100000
    3.401257    -1.622519     0.271019     1.200000     1.100000
   -1.104795    -1.419144    -0.680915     1.700000     1.100000
   -0.544367    -2.322264    -0.886379     1.200000     1.100000
   -2.406337    -1.522553    -0.118110     1.700000     1.100000
   -2.824445    -2.509213     0.045570     1.200000     1.100000
   -1.462637     0.999808    -0.987512     1.700000     1.100000
   -0.929588     1.949702    -0.936130     1.200000     1.100000
   -1.898804     0.937531    -1.990366     1.200000     1.100000
   -2.592283     0.958575     0.043388     1.700000     1.100000
   -3.401256     1.622519    -0.271019     1.200000     1.100000
   -2.248595     1.357032     1.006498     1.200000     1.100000

--link1--
%chk=meso-TS_0_1_xp-105.chk
%nproc=24
%mem=48GB
#p uwb97xd guess=mix def2tzvp 
# scrf=(iefpcm,solvent=Cyclohexane,read) nosym 6d 10f 

endo-2
xp-pcm for eta=3

0 1
  6  -3.118984  -0.431661   0.247435 
  6  -0.498940  -0.160927  -0.842197 
  1  -4.083986  -0.548798   0.725945 
  1   0.353927  -0.115768  -1.511796 
  6   1.104795   1.419144   0.680915 
  6   0.498940   0.160927   0.842197 
  1   0.544367   2.322264   0.886379 
  1  -0.353927   0.115768   1.511797 
  6   1.462637  -0.999808   0.987512 
  1   1.898804  -0.937531   1.990366 
  1   0.929588  -1.949702   0.936130 
  6   2.406337   1.522553   0.118110 
  1   2.824446   2.509213  -0.045570 
  6   3.118984   0.431661  -0.247435 
  1   4.083986   0.548798  -0.725945 
  6   2.592283  -0.958575  -0.043388 
  1   2.248595  -1.357032  -1.006499 
  1   3.401257  -1.622519   0.271019 
  6  -1.104795  -1.419144  -0.680915 
  1  -0.544367  -2.322264  -0.886379 
  6  -2.406337  -1.522553  -0.118110 
  1  -2.824445  -2.509213   0.045570 
  6  -1.462637   0.999808  -0.987512 
  1  -0.929588   1.949702  -0.936130 
  1  -1.898804   0.937531  -1.990366 
  6  -2.592283   0.958575   0.043388 
  1  -3.401256   1.622519  -0.271019 
  1  -2.248595   1.357032   1.006498 

qrep pcmdoc geomview  nodis nocav g03defaults tsare=0.075 
nsfe=28
NVESolv=36  SolvMW=84.1595   Rsolv=2.815 
eps=2.22376880117094 RhoS=1.12776705486046

   -3.118984    -0.431661     0.247435     1.700000     1.050000
   -0.498940    -0.160927    -0.842197     1.700000     1.050000
   -4.083986    -0.548798     0.725945     1.200000     1.050000
    0.353927    -0.115768    -1.511796     1.200000     1.050000
    1.104795     1.419144     0.680915     1.700000     1.050000
    0.498940     0.160927     0.842197     1.700000     1.050000
    0.544367     2.322264     0.886379     1.200000     1.050000
   -0.353927     0.115768     1.511797     1.200000     1.050000
    1.462637    -0.999808     0.987512     1.700000     1.050000
    1.898804    -0.937531     1.990366     1.200000     1.050000
    0.929588    -1.949702     0.936130     1.200000     1.050000
    2.406337     1.522553     0.118110     1.700000     1.050000
    2.824446     2.509213    -0.045570     1.200000     1.050000
    3.118984     0.431661    -0.247435     1.700000     1.050000
    4.083986     0.548798    -0.725945     1.200000     1.050000
    2.592283    -0.958575    -0.043388     1.700000     1.050000
    2.248595    -1.357032    -1.006499     1.200000     1.050000
    3.401257    -1.622519     0.271019     1.200000     1.050000
   -1.104795    -1.419144    -0.680915     1.700000     1.050000
   -0.544367    -2.322264    -0.886379     1.200000     1.050000
   -2.406337    -1.522553    -0.118110     1.700000     1.050000
   -2.824445    -2.509213     0.045570     1.200000     1.050000
   -1.462637     0.999808    -0.987512     1.700000     1.050000
   -0.929588     1.949702    -0.936130     1.200000     1.050000
   -1.898804     0.937531    -1.990366     1.200000     1.050000
   -2.592283     0.958575     0.043388     1.700000     1.050000
   -3.401256     1.622519    -0.271019     1.200000     1.050000
   -2.248595     1.357032     1.006498     1.200000     1.050000

--link1--
%chk=meso-TS_0_1_xp-100.chk
%nproc=24
%mem=48GB
#p uwb97xd guess=mix def2tzvp 
# scrf=(iefpcm,solvent=Cyclohexane,read) nosym 6d 10f 

endo-2
xp-pcm for eta=3

0 1
  6  -3.118984  -0.431661   0.247435 
  6  -0.498940  -0.160927  -0.842197 
  1  -4.083986  -0.548798   0.725945 
  1   0.353927  -0.115768  -1.511796 
  6   1.104795   1.419144   0.680915 
  6   0.498940   0.160927   0.842197 
  1   0.544367   2.322264   0.886379 
  1  -0.353927   0.115768   1.511797 
  6   1.462637  -0.999808   0.987512 
  1   1.898804  -0.937531   1.990366 
  1   0.929588  -1.949702   0.936130 
  6   2.406337   1.522553   0.118110 
  1   2.824446   2.509213  -0.045570 
  6   3.118984   0.431661  -0.247435 
  1   4.083986   0.548798  -0.725945 
  6   2.592283  -0.958575  -0.043388 
  1   2.248595  -1.357032  -1.006499 
  1   3.401257  -1.622519   0.271019 
  6  -1.104795  -1.419144  -0.680915 
  1  -0.544367  -2.322264  -0.886379 
  6  -2.406337  -1.522553  -0.118110 
  1  -2.824445  -2.509213   0.045570 
  6  -1.462637   0.999808  -0.987512 
  1  -0.929588   1.949702  -0.936130 
  1  -1.898804   0.937531  -1.990366 
  6  -2.592283   0.958575   0.043388 
  1  -3.401256   1.622519  -0.271019 
  1  -2.248595   1.357032   1.006498 

qrep pcmdoc geomview  nodis nocav g03defaults tsare=0.075 
nsfe=28
NVESolv=36  SolvMW=84.1595   Rsolv=2.815 
eps=2.30480546666792 RhoS=1.28207131826017

   -3.118984    -0.431661     0.247435     1.700000     1.000000
   -0.498940    -0.160927    -0.842197     1.700000     1.000000
   -4.083986    -0.548798     0.725945     1.200000     1.000000
    0.353927    -0.115768    -1.511796     1.200000     1.000000
    1.104795     1.419144     0.680915     1.700000     1.000000
    0.498940     0.160927     0.842197     1.700000     1.000000
    0.544367     2.322264     0.886379     1.200000     1.000000
   -0.353927     0.115768     1.511797     1.200000     1.000000
    1.462637    -0.999808     0.987512     1.700000     1.000000
    1.898804    -0.937531     1.990366     1.200000     1.000000
    0.929588    -1.949702     0.936130     1.200000     1.000000
    2.406337     1.522553     0.118110     1.700000     1.000000
    2.824446     2.509213    -0.045570     1.200000     1.000000
    3.118984     0.431661    -0.247435     1.700000     1.000000
    4.083986     0.548798    -0.725945     1.200000     1.000000
    2.592283    -0.958575    -0.043388     1.700000     1.000000
    2.248595    -1.357032    -1.006499     1.200000     1.000000
    3.401257    -1.622519     0.271019     1.200000     1.000000
   -1.104795    -1.419144    -0.680915     1.700000     1.000000
   -0.544367    -2.322264    -0.886379     1.200000     1.000000
   -2.406337    -1.522553    -0.118110     1.700000     1.000000
   -2.824445    -2.509213     0.045570     1.200000     1.000000
   -1.462637     0.999808    -0.987512     1.700000     1.000000
   -0.929588     1.949702    -0.936130     1.200000     1.000000
   -1.898804     0.937531    -1.990366     1.200000     1.000000
   -2.592283     0.958575     0.043388     1.700000     1.000000
   -3.401256     1.622519    -0.271019     1.200000     1.000000
   -2.248595     1.357032     1.006498     1.200000     1.000000

--link1--
%chk=meso-TS_0_1_xp-0975.chk
%nproc=24
%mem=48GB
#p uwb97xd guess=mix def2tzvp 
# scrf=(iefpcm,solvent=Cyclohexane,read) nosym 6d 10f 

endo-2
xp-pcm for eta=3

0 1
  6  -3.118984  -0.431661   0.247435 
  6  -0.498940  -0.160927  -0.842197 
  1  -4.083986  -0.548798   0.725945 
  1   0.353927  -0.115768  -1.511796 
  6   1.104795   1.419144   0.680915 
  6   0.498940   0.160927   0.842197 
  1   0.544367   2.322264   0.886379 
  1  -0.353927   0.115768   1.511797 
  6   1.462637  -0.999808   0.987512 
  1   1.898804  -0.937531   1.990366 
  1   0.929588  -1.949702   0.936130 
  6   2.406337   1.522553   0.118110 
  1   2.824446   2.509213  -0.045570 
  6   3.118984   0.431661  -0.247435 
  1   4.083986   0.548798  -0.725945 
  6   2.592283  -0.958575  -0.043388 
  1   2.248595  -1.357032  -1.006499 
  1   3.401257  -1.622519   0.271019 
  6  -1.104795  -1.419144  -0.680915 
  1  -0.544367  -2.322264  -0.886379 
  6  -2.406337  -1.522553  -0.118110 
  1  -2.824445  -2.509213   0.045570 
  6  -1.462637   0.999808  -0.987512 
  1  -0.929588   1.949702  -0.936130 
  1  -1.898804   0.937531  -1.990366 
  6  -2.592283   0.958575   0.043388 
  1  -3.401256   1.622519  -0.271019 
  1  -2.248595   1.357032   1.006498 

qrep pcmdoc geomview  nodis nocav g03defaults tsare=0.075 
nsfe=28
NVESolv=36  SolvMW=84.1595   Rsolv=2.815 
eps=2.34745273026226 RhoS=1.36724935387803

   -3.118984    -0.431661     0.247435     1.700000     0.975000
   -0.498940    -0.160927    -0.842197     1.700000     0.975000
   -4.083986    -0.548798     0.725945     1.200000     0.975000
    0.353927    -0.115768    -1.511796     1.200000     0.975000
    1.104795     1.419144     0.680915     1.700000     0.975000
    0.498940     0.160927     0.842197     1.700000     0.975000
    0.544367     2.322264     0.886379     1.200000     0.975000
   -0.353927     0.115768     1.511797     1.200000     0.975000
    1.462637    -0.999808     0.987512     1.700000     0.975000
    1.898804    -0.937531     1.990366     1.200000     0.975000
    0.929588    -1.949702     0.936130     1.200000     0.975000
    2.406337     1.522553     0.118110     1.700000     0.975000
    2.824446     2.509213    -0.045570     1.200000     0.975000
    3.118984     0.431661    -0.247435     1.700000     0.975000
    4.083986     0.548798    -0.725945     1.200000     0.975000
    2.592283    -0.958575    -0.043388     1.700000     0.975000
    2.248595    -1.357032    -1.006499     1.200000     0.975000
    3.401257    -1.622519     0.271019     1.200000     0.975000
   -1.104795    -1.419144    -0.680915     1.700000     0.975000
   -0.544367    -2.322264    -0.886379     1.200000     0.975000
   -2.406337    -1.522553    -0.118110     1.700000     0.975000
   -2.824445    -2.509213     0.045570     1.200000     0.975000
   -1.462637     0.999808    -0.987512     1.700000     0.975000
   -0.929588     1.949702    -0.936130     1.200000     0.975000
   -1.898804     0.937531    -1.990366     1.200000     0.975000
   -2.592283     0.958575     0.043388     1.700000     0.975000
   -3.401256     1.622519    -0.271019     1.200000     0.975000
   -2.248595     1.357032     1.006498     1.200000     0.975000

--link1--
%chk=meso-TS_0_1_xp-095.chk
%nproc=24
%mem=48GB
#p uwb97xd guess=mix def2tzvp 
# scrf=(iefpcm,solvent=Cyclohexane,read) nosym 6d 10f 

endo-2
xp-pcm for eta=3

0 1
  6  -3.118984  -0.431661   0.247435 
  6  -0.498940  -0.160927  -0.842197 
  1  -4.083986  -0.548798   0.725945 
  1   0.353927  -0.115768  -1.511796 
  6   1.104795   1.419144   0.680915 
  6   0.498940   0.160927   0.842197 
  1   0.544367   2.322264   0.886379 
  1  -0.353927   0.115768   1.511797 
  6   1.462637  -0.999808   0.987512 
  1   1.898804  -0.937531   1.990366 
  1   0.929588  -1.949702   0.936130 
  6   2.406337   1.522553   0.118110 
  1   2.824446   2.509213  -0.045570 
  6   3.118984   0.431661  -0.247435 
  1   4.083986   0.548798  -0.725945 
  6   2.592283  -0.958575  -0.043388 
  1   2.248595  -1.357032  -1.006499 
  1   3.401257  -1.622519   0.271019 
  6  -1.104795  -1.419144  -0.680915 
  1  -0.544367  -2.322264  -0.886379 
  6  -2.406337  -1.522553  -0.118110 
  1  -2.824445  -2.509213   0.045570 
  6  -1.462637   0.999808  -0.987512 
  1  -0.929588   1.949702  -0.936130 
  1  -1.898804   0.937531  -1.990366 
  6  -2.592283   0.958575   0.043388 
  1  -3.401256   1.622519  -0.271019 
  1  -2.248595   1.357032   1.006498 

qrep pcmdoc geomview  nodis nocav g03defaults tsare=0.075 
nsfe=28
NVESolv=36  SolvMW=84.1595   Rsolv=2.815 
eps=2.39339884323873 RhoS=1.4620813611373

   -3.118984    -0.431661     0.247435     1.700000     0.950000
   -0.498940    -0.160927    -0.842197     1.700000     0.950000
   -4.083986    -0.548798     0.725945     1.200000     0.950000
    0.353927    -0.115768    -1.511796     1.200000     0.950000
    1.104795     1.419144     0.680915     1.700000     0.950000
    0.498940     0.160927     0.842197     1.700000     0.950000
    0.544367     2.322264     0.886379     1.200000     0.950000
   -0.353927     0.115768     1.511797     1.200000     0.950000
    1.462637    -0.999808     0.987512     1.700000     0.950000
    1.898804    -0.937531     1.990366     1.200000     0.950000
    0.929588    -1.949702     0.936130     1.200000     0.950000
    2.406337     1.522553     0.118110     1.700000     0.950000
    2.824446     2.509213    -0.045570     1.200000     0.950000
    3.118984     0.431661    -0.247435     1.700000     0.950000
    4.083986     0.548798    -0.725945     1.200000     0.950000
    2.592283    -0.958575    -0.043388     1.700000     0.950000
    2.248595    -1.357032    -1.006499     1.200000     0.950000
    3.401257    -1.622519     0.271019     1.200000     0.950000
   -1.104795    -1.419144    -0.680915     1.700000     0.950000
   -0.544367    -2.322264    -0.886379     1.200000     0.950000
   -2.406337    -1.522553    -0.118110     1.700000     0.950000
   -2.824445    -2.509213     0.045570     1.200000     0.950000
   -1.462637     0.999808    -0.987512     1.700000     0.950000
   -0.929588     1.949702    -0.936130     1.200000     0.950000
   -1.898804     0.937531    -1.990366     1.200000     0.950000
   -2.592283     0.958575     0.043388     1.700000     0.950000
   -3.401256     1.622519    -0.271019     1.200000     0.950000
   -2.248595     1.357032     1.006498     1.200000     0.950000

