%nproc=24
%mem=48GB
#p uwb97xd guess=mix def2tzvp 

endo-2

0 1
  6  -3.124289  -0.440568   0.273825 
  6  -0.779334  -0.262885  -1.307346 
  1  -4.052542  -0.525134   0.826967 
  1   0.156842  -0.185836  -1.846810 
  6   1.201080   1.433542   0.837652 
  6   0.779334   0.262885   1.307346 
  1   0.611027   2.330893   0.981818 
  1  -0.156842   0.185836   1.846810 
  6   1.608710  -0.980804   1.165455 
  1   2.184078  -1.105933   2.091917 
  1   0.960037  -1.854799   1.091076 
  6   2.473068   1.533352   0.120365 
  1   2.872711   2.516986  -0.095624 
  6   3.124289   0.440568  -0.273825 
  1   4.052542   0.525134  -0.826967 
  6   2.562276  -0.933884  -0.032313 
  1   2.037748  -1.254098  -0.940912 
  1   3.370732  -1.653099   0.111706 
  6  -1.201080  -1.433542  -0.837652 
  1  -0.611027  -2.330893  -0.981818 
  6  -2.473068  -1.533352  -0.120365 
  1  -2.872711  -2.516986   0.095624 
  6  -1.608710   0.980804  -1.165455 
  1  -0.960037   1.854799  -1.091076 
  1  -2.184078   1.105933  -2.091917 
  6  -2.562276   0.933884   0.032313 
  1  -3.370732   1.653099  -0.111706 
  1  -2.037748   1.254098   0.940912 

