%nproc=24
%mem=48GB
#p uwb97xd guess=mix def2tzvp 

endo-2

0 1
  6  -3.119734  -0.426930   0.248214 
  6  -0.452630  -0.134377  -0.766522 
  1  -4.086028  -0.547352   0.722629 
  1   0.332703  -0.111776  -1.521768 
  6   1.115166   1.430657   0.672626 
  6   0.452630   0.134377   0.766522 
  1   0.561998   2.331699   0.905522 
  1  -0.332703   0.111776   1.521768 
  6   1.457223  -0.998723   0.982555 
  1   1.882127  -0.904241   1.986471 
  1   0.944658  -1.961243   0.946268 
  6   2.397689   1.528359   0.123394 
  1   2.825979   2.512496  -0.031045 
  6   3.119734   0.426930  -0.248214 
  1   4.086028   0.547352  -0.722629 
  6   2.592798  -0.959299  -0.042549 
  1   2.246207  -1.358828  -1.004791 
  1   3.401603  -1.624548   0.271052 
  6  -1.115166  -1.430657  -0.672626 
  1  -0.561998  -2.331699  -0.905522 
  6  -2.397689  -1.528359  -0.123394 
  1  -2.825979  -2.512496   0.031045 
  6  -1.457223   0.998723  -0.982556 
  1  -0.944658   1.961243  -0.946268 
  1  -1.882127   0.904241  -1.986471 
  6  -2.592798   0.959299   0.042549 
  1  -3.401603   1.624548  -0.271052 
  1  -2.246207   1.358828   1.004791 

