%nproc=24
%mem=48GB
#p uwb97xd guess=mix def2tzvp 

endo-2

0 1
  6  -3.124486  -0.439464   0.250893 
  6  -0.647306  -0.230427  -1.105597 
  1  -4.084971  -0.544748   0.742034 
  1   0.323194  -0.137629  -1.574480 
  6   1.115957   1.415764   0.726197 
  6   0.647306   0.230427   1.105597 
  1   0.524506   2.313770   0.854246 
  1  -0.323194   0.137629   1.574480 
  6   1.503007  -1.001045   1.038660 
  1   1.985221  -1.095436   2.019831 
  1   0.887003  -1.891265   0.921479 
  6   2.433841   1.521901   0.105946 
  1   2.840105   2.509020  -0.080013 
  6   3.124486   0.439464  -0.250893 
  1   4.084971   0.544748  -0.742034 
  6   2.587213  -0.950307  -0.043454 
  1   2.204157  -1.326175  -1.000254 
  1   3.400038  -1.626681   0.228849 
  6  -1.115957  -1.415764  -0.726197 
  1  -0.524506  -2.313770  -0.854246 
  6  -2.433841  -1.521901  -0.105946 
  1  -2.840105  -2.509020   0.080013 
  6  -1.503007   1.001045  -1.038660 
  1  -0.887003   1.891265  -0.921479 
  1  -1.985221   1.095436  -2.019831 
  6  -2.587213   0.950307   0.043454 
  1  -3.400038   1.626680  -0.228849 
  1  -2.204158   1.326175   1.000254 

