%chk=meso-TS_73_2_xp-12.chk
%nproc=24
%mem=48GB
#p uwb97xd guess=mix def2tzvp 
# scrf=(iefpcm,solvent=Cyclohexane,read) nosym 6d 10f 

endo-2
xp-pcm for eta=3

0 1
  6  -3.120165  -0.439520   0.280190 
  6  -0.807998  -0.270483  -1.349166 
  1  -4.039260  -0.519446   0.849052 
  1   0.117969  -0.196755  -1.906627 
  6   1.221266   1.438778   0.865571 
  6   0.807998   0.270483   1.349166 
  1   0.634256   2.337167   1.015854 
  1  -0.117969   0.196755   1.906627 
  6   1.635901  -0.972988   1.195334 
  1   2.239675  -1.089626   2.104856 
  1   0.987632  -1.849296   1.145396 
  6   2.482134   1.535015   0.127997 
  1   2.882920   2.517315  -0.091872 
  6   3.120165   0.439520  -0.280190 
  1   4.039260   0.519446  -0.849052 
  6   2.551272  -0.930669  -0.031151 
  1   1.991682  -1.236938  -0.923478 
  1   3.354963  -1.660578   0.081874 
  6  -1.221266  -1.438778  -0.865571 
  1  -0.634256  -2.337167  -1.015854 
  6  -2.482134  -1.535015  -0.127997 
  1  -2.882920  -2.517315   0.091872 
  6  -1.635901   0.972988  -1.195334 
  1  -0.987632   1.849296  -1.145396 
  1  -2.239675   1.089626  -2.104856 
  6  -2.551272   0.930669   0.031151 
  1  -3.354963   1.660578  -0.081874 
  1  -1.991682   1.236938   0.923479 

qrep pcmdoc geomview  nodis nocav g03defaults tsare=0.075 
nsfe=28
NVESolv=36  SolvMW=84.1595   Rsolv=2.815 
eps=2.0165 RhoS=0.778099999999998

   -3.120165    -0.439520     0.280190     1.700000     1.200000
   -0.807998    -0.270483    -1.349166     1.700000     1.200000
   -4.039260    -0.519446     0.849052     1.200000     1.200000
    0.117969    -0.196755    -1.906627     1.200000     1.200000
    1.221266     1.438778     0.865571     1.700000     1.200000
    0.807998     0.270483     1.349166     1.700000     1.200000
    0.634256     2.337167     1.015854     1.200000     1.200000
   -0.117969     0.196755     1.906627     1.200000     1.200000
    1.635901    -0.972988     1.195334     1.700000     1.200000
    2.239675    -1.089626     2.104856     1.200000     1.200000
    0.987632    -1.849296     1.145396     1.200000     1.200000
    2.482134     1.535015     0.127997     1.700000     1.200000
    2.882920     2.517315    -0.091872     1.200000     1.200000
    3.120165     0.439520    -0.280190     1.700000     1.200000
    4.039260     0.519446    -0.849052     1.200000     1.200000
    2.551272    -0.930669    -0.031151     1.700000     1.200000
    1.991682    -1.236938    -0.923478     1.200000     1.200000
    3.354963    -1.660578     0.081874     1.200000     1.200000
   -1.221266    -1.438778    -0.865571     1.700000     1.200000
   -0.634256    -2.337167    -1.015854     1.200000     1.200000
   -2.482134    -1.535015    -0.127997     1.700000     1.200000
   -2.882920    -2.517315     0.091872     1.200000     1.200000
   -1.635901     0.972988    -1.195334     1.700000     1.200000
   -0.987632     1.849296    -1.145396     1.200000     1.200000
   -2.239675     1.089626    -2.104856     1.200000     1.200000
   -2.551272     0.930669     0.031151     1.700000     1.200000
   -3.354963     1.660578    -0.081874     1.200000     1.200000
   -1.991682     1.236938     0.923479     1.200000     1.200000

--link1--
%chk=meso-TS_73_2_xp-115.chk
%nproc=24
%mem=48GB
#p uwb97xd guess=mix def2tzvp 
# scrf=(iefpcm,solvent=Cyclohexane,read) nosym 6d 10f 

endo-2
xp-pcm for eta=3

0 1
  6  -3.120165  -0.439520   0.280190 
  6  -0.807998  -0.270483  -1.349166 
  1  -4.039260  -0.519446   0.849052 
  1   0.117969  -0.196755  -1.906627 
  6   1.221266   1.438778   0.865571 
  6   0.807998   0.270483   1.349166 
  1   0.634256   2.337167   1.015854 
  1  -0.117969   0.196755   1.906627 
  6   1.635901  -0.972988   1.195334 
  1   2.239675  -1.089626   2.104856 
  1   0.987632  -1.849296   1.145396 
  6   2.482134   1.535015   0.127997 
  1   2.882920   2.517315  -0.091872 
  6   3.120165   0.439520  -0.280190 
  1   4.039260   0.519446  -0.849052 
  6   2.551272  -0.930669  -0.031151 
  1   1.991682  -1.236938  -0.923478 
  1   3.354963  -1.660578   0.081874 
  6  -1.221266  -1.438778  -0.865571 
  1  -0.634256  -2.337167  -1.015854 
  6  -2.482134  -1.535015  -0.127997 
  1  -2.882920  -2.517315   0.091872 
  6  -1.635901   0.972988  -1.195334 
  1  -0.987632   1.849296  -1.145396 
  1  -2.239675   1.089626  -2.104856 
  6  -2.551272   0.930669   0.031151 
  1  -3.354963   1.660578  -0.081874 
  1  -1.991682   1.236938   0.923479 

qrep pcmdoc geomview  nodis nocav g03defaults tsare=0.075 
nsfe=28
NVESolv=36  SolvMW=84.1595   Rsolv=2.815 
eps=2.08074995319988 RhoS=0.87957140140931

   -3.120165    -0.439520     0.280190     1.700000     1.150000
   -0.807998    -0.270483    -1.349166     1.700000     1.150000
   -4.039260    -0.519446     0.849052     1.200000     1.150000
    0.117969    -0.196755    -1.906627     1.200000     1.150000
    1.221266     1.438778     0.865571     1.700000     1.150000
    0.807998     0.270483     1.349166     1.700000     1.150000
    0.634256     2.337167     1.015854     1.200000     1.150000
   -0.117969     0.196755     1.906627     1.200000     1.150000
    1.635901    -0.972988     1.195334     1.700000     1.150000
    2.239675    -1.089626     2.104856     1.200000     1.150000
    0.987632    -1.849296     1.145396     1.200000     1.150000
    2.482134     1.535015     0.127997     1.700000     1.150000
    2.882920     2.517315    -0.091872     1.200000     1.150000
    3.120165     0.439520    -0.280190     1.700000     1.150000
    4.039260     0.519446    -0.849052     1.200000     1.150000
    2.551272    -0.930669    -0.031151     1.700000     1.150000
    1.991682    -1.236938    -0.923478     1.200000     1.150000
    3.354963    -1.660578     0.081874     1.200000     1.150000
   -1.221266    -1.438778    -0.865571     1.700000     1.150000
   -0.634256    -2.337167    -1.015854     1.200000     1.150000
   -2.482134    -1.535015    -0.127997     1.700000     1.150000
   -2.882920    -2.517315     0.091872     1.200000     1.150000
   -1.635901     0.972988    -1.195334     1.700000     1.150000
   -0.987632     1.849296    -1.145396     1.200000     1.150000
   -2.239675     1.089626    -2.104856     1.200000     1.150000
   -2.551272     0.930669     0.031151     1.700000     1.150000
   -3.354963     1.660578    -0.081874     1.200000     1.150000
   -1.991682     1.236938     0.923479     1.200000     1.150000

--link1--
%chk=meso-TS_73_2_xp-110.chk
%nproc=24
%mem=48GB
#p uwb97xd guess=mix def2tzvp 
# scrf=(iefpcm,solvent=Cyclohexane,read) nosym 6d 10f 

endo-2
xp-pcm for eta=3

0 1
  6  -3.120165  -0.439520   0.280190 
  6  -0.807998  -0.270483  -1.349166 
  1  -4.039260  -0.519446   0.849052 
  1   0.117969  -0.196755  -1.906627 
  6   1.221266   1.438778   0.865571 
  6   0.807998   0.270483   1.349166 
  1   0.634256   2.337167   1.015854 
  1  -0.117969   0.196755   1.906627 
  6   1.635901  -0.972988   1.195334 
  1   2.239675  -1.089626   2.104856 
  1   0.987632  -1.849296   1.145396 
  6   2.482134   1.535015   0.127997 
  1   2.882920   2.517315  -0.091872 
  6   3.120165   0.439520  -0.280190 
  1   4.039260   0.519446  -0.849052 
  6   2.551272  -0.930669  -0.031151 
  1   1.991682  -1.236938  -0.923478 
  1   3.354963  -1.660578   0.081874 
  6  -1.221266  -1.438778  -0.865571 
  1  -0.634256  -2.337167  -1.015854 
  6  -2.482134  -1.535015  -0.127997 
  1  -2.882920  -2.517315   0.091872 
  6  -1.635901   0.972988  -1.195334 
  1  -0.987632   1.849296  -1.145396 
  1  -2.239675   1.089626  -2.104856 
  6  -2.551272   0.930669   0.031151 
  1  -3.354963   1.660578  -0.081874 
  1  -1.991682   1.236938   0.923479 

qrep pcmdoc geomview  nodis nocav g03defaults tsare=0.075 
nsfe=28
NVESolv=36  SolvMW=84.1595   Rsolv=2.815 
eps=2.14797859684703 RhoS=0.992403372535132

   -3.120165    -0.439520     0.280190     1.700000     1.100000
   -0.807998    -0.270483    -1.349166     1.700000     1.100000
   -4.039260    -0.519446     0.849052     1.200000     1.100000
    0.117969    -0.196755    -1.906627     1.200000     1.100000
    1.221266     1.438778     0.865571     1.700000     1.100000
    0.807998     0.270483     1.349166     1.700000     1.100000
    0.634256     2.337167     1.015854     1.200000     1.100000
   -0.117969     0.196755     1.906627     1.200000     1.100000
    1.635901    -0.972988     1.195334     1.700000     1.100000
    2.239675    -1.089626     2.104856     1.200000     1.100000
    0.987632    -1.849296     1.145396     1.200000     1.100000
    2.482134     1.535015     0.127997     1.700000     1.100000
    2.882920     2.517315    -0.091872     1.200000     1.100000
    3.120165     0.439520    -0.280190     1.700000     1.100000
    4.039260     0.519446    -0.849052     1.200000     1.100000
    2.551272    -0.930669    -0.031151     1.700000     1.100000
    1.991682    -1.236938    -0.923478     1.200000     1.100000
    3.354963    -1.660578     0.081874     1.200000     1.100000
   -1.221266    -1.438778    -0.865571     1.700000     1.100000
   -0.634256    -2.337167    -1.015854     1.200000     1.100000
   -2.482134    -1.535015    -0.127997     1.700000     1.100000
   -2.882920    -2.517315     0.091872     1.200000     1.100000
   -1.635901     0.972988    -1.195334     1.700000     1.100000
   -0.987632     1.849296    -1.145396     1.200000     1.100000
   -2.239675     1.089626    -2.104856     1.200000     1.100000
   -2.551272     0.930669     0.031151     1.700000     1.100000
   -3.354963     1.660578    -0.081874     1.200000     1.100000
   -1.991682     1.236938     0.923479     1.200000     1.100000

--link1--
%chk=meso-TS_73_2_xp-105.chk
%nproc=24
%mem=48GB
#p uwb97xd guess=mix def2tzvp 
# scrf=(iefpcm,solvent=Cyclohexane,read) nosym 6d 10f 

endo-2
xp-pcm for eta=3

0 1
  6  -3.120165  -0.439520   0.280190 
  6  -0.807998  -0.270483  -1.349166 
  1  -4.039260  -0.519446   0.849052 
  1   0.117969  -0.196755  -1.906627 
  6   1.221266   1.438778   0.865571 
  6   0.807998   0.270483   1.349166 
  1   0.634256   2.337167   1.015854 
  1  -0.117969   0.196755   1.906627 
  6   1.635901  -0.972988   1.195334 
  1   2.239675  -1.089626   2.104856 
  1   0.987632  -1.849296   1.145396 
  6   2.482134   1.535015   0.127997 
  1   2.882920   2.517315  -0.091872 
  6   3.120165   0.439520  -0.280190 
  1   4.039260   0.519446  -0.849052 
  6   2.551272  -0.930669  -0.031151 
  1   1.991682  -1.236938  -0.923478 
  1   3.354963  -1.660578   0.081874 
  6  -1.221266  -1.438778  -0.865571 
  1  -0.634256  -2.337167  -1.015854 
  6  -2.482134  -1.535015  -0.127997 
  1  -2.882920  -2.517315   0.091872 
  6  -1.635901   0.972988  -1.195334 
  1  -0.987632   1.849296  -1.145396 
  1  -2.239675   1.089626  -2.104856 
  6  -2.551272   0.930669   0.031151 
  1  -3.354963   1.660578  -0.081874 
  1  -1.991682   1.236938   0.923479 

qrep pcmdoc geomview  nodis nocav g03defaults tsare=0.075 
nsfe=28
NVESolv=36  SolvMW=84.1595   Rsolv=2.815 
eps=2.22376880117094 RhoS=1.12776705486046

   -3.120165    -0.439520     0.280190     1.700000     1.050000
   -0.807998    -0.270483    -1.349166     1.700000     1.050000
   -4.039260    -0.519446     0.849052     1.200000     1.050000
    0.117969    -0.196755    -1.906627     1.200000     1.050000
    1.221266     1.438778     0.865571     1.700000     1.050000
    0.807998     0.270483     1.349166     1.700000     1.050000
    0.634256     2.337167     1.015854     1.200000     1.050000
   -0.117969     0.196755     1.906627     1.200000     1.050000
    1.635901    -0.972988     1.195334     1.700000     1.050000
    2.239675    -1.089626     2.104856     1.200000     1.050000
    0.987632    -1.849296     1.145396     1.200000     1.050000
    2.482134     1.535015     0.127997     1.700000     1.050000
    2.882920     2.517315    -0.091872     1.200000     1.050000
    3.120165     0.439520    -0.280190     1.700000     1.050000
    4.039260     0.519446    -0.849052     1.200000     1.050000
    2.551272    -0.930669    -0.031151     1.700000     1.050000
    1.991682    -1.236938    -0.923478     1.200000     1.050000
    3.354963    -1.660578     0.081874     1.200000     1.050000
   -1.221266    -1.438778    -0.865571     1.700000     1.050000
   -0.634256    -2.337167    -1.015854     1.200000     1.050000
   -2.482134    -1.535015    -0.127997     1.700000     1.050000
   -2.882920    -2.517315     0.091872     1.200000     1.050000
   -1.635901     0.972988    -1.195334     1.700000     1.050000
   -0.987632     1.849296    -1.145396     1.200000     1.050000
   -2.239675     1.089626    -2.104856     1.200000     1.050000
   -2.551272     0.930669     0.031151     1.700000     1.050000
   -3.354963     1.660578    -0.081874     1.200000     1.050000
   -1.991682     1.236938     0.923479     1.200000     1.050000

--link1--
%chk=meso-TS_73_2_xp-100.chk
%nproc=24
%mem=48GB
#p uwb97xd guess=mix def2tzvp 
# scrf=(iefpcm,solvent=Cyclohexane,read) nosym 6d 10f 

endo-2
xp-pcm for eta=3

0 1
  6  -3.120165  -0.439520   0.280190 
  6  -0.807998  -0.270483  -1.349166 
  1  -4.039260  -0.519446   0.849052 
  1   0.117969  -0.196755  -1.906627 
  6   1.221266   1.438778   0.865571 
  6   0.807998   0.270483   1.349166 
  1   0.634256   2.337167   1.015854 
  1  -0.117969   0.196755   1.906627 
  6   1.635901  -0.972988   1.195334 
  1   2.239675  -1.089626   2.104856 
  1   0.987632  -1.849296   1.145396 
  6   2.482134   1.535015   0.127997 
  1   2.882920   2.517315  -0.091872 
  6   3.120165   0.439520  -0.280190 
  1   4.039260   0.519446  -0.849052 
  6   2.551272  -0.930669  -0.031151 
  1   1.991682  -1.236938  -0.923478 
  1   3.354963  -1.660578   0.081874 
  6  -1.221266  -1.438778  -0.865571 
  1  -0.634256  -2.337167  -1.015854 
  6  -2.482134  -1.535015  -0.127997 
  1  -2.882920  -2.517315   0.091872 
  6  -1.635901   0.972988  -1.195334 
  1  -0.987632   1.849296  -1.145396 
  1  -2.239675   1.089626  -2.104856 
  6  -2.551272   0.930669   0.031151 
  1  -3.354963   1.660578  -0.081874 
  1  -1.991682   1.236938   0.923479 

qrep pcmdoc geomview  nodis nocav g03defaults tsare=0.075 
nsfe=28
NVESolv=36  SolvMW=84.1595   Rsolv=2.815 
eps=2.30480546666792 RhoS=1.28207131826017

   -3.120165    -0.439520     0.280190     1.700000     1.000000
   -0.807998    -0.270483    -1.349166     1.700000     1.000000
   -4.039260    -0.519446     0.849052     1.200000     1.000000
    0.117969    -0.196755    -1.906627     1.200000     1.000000
    1.221266     1.438778     0.865571     1.700000     1.000000
    0.807998     0.270483     1.349166     1.700000     1.000000
    0.634256     2.337167     1.015854     1.200000     1.000000
   -0.117969     0.196755     1.906627     1.200000     1.000000
    1.635901    -0.972988     1.195334     1.700000     1.000000
    2.239675    -1.089626     2.104856     1.200000     1.000000
    0.987632    -1.849296     1.145396     1.200000     1.000000
    2.482134     1.535015     0.127997     1.700000     1.000000
    2.882920     2.517315    -0.091872     1.200000     1.000000
    3.120165     0.439520    -0.280190     1.700000     1.000000
    4.039260     0.519446    -0.849052     1.200000     1.000000
    2.551272    -0.930669    -0.031151     1.700000     1.000000
    1.991682    -1.236938    -0.923478     1.200000     1.000000
    3.354963    -1.660578     0.081874     1.200000     1.000000
   -1.221266    -1.438778    -0.865571     1.700000     1.000000
   -0.634256    -2.337167    -1.015854     1.200000     1.000000
   -2.482134    -1.535015    -0.127997     1.700000     1.000000
   -2.882920    -2.517315     0.091872     1.200000     1.000000
   -1.635901     0.972988    -1.195334     1.700000     1.000000
   -0.987632     1.849296    -1.145396     1.200000     1.000000
   -2.239675     1.089626    -2.104856     1.200000     1.000000
   -2.551272     0.930669     0.031151     1.700000     1.000000
   -3.354963     1.660578    -0.081874     1.200000     1.000000
   -1.991682     1.236938     0.923479     1.200000     1.000000

--link1--
%chk=meso-TS_73_2_xp-0975.chk
%nproc=24
%mem=48GB
#p uwb97xd guess=mix def2tzvp 
# scrf=(iefpcm,solvent=Cyclohexane,read) nosym 6d 10f 

endo-2
xp-pcm for eta=3

0 1
  6  -3.120165  -0.439520   0.280190 
  6  -0.807998  -0.270483  -1.349166 
  1  -4.039260  -0.519446   0.849052 
  1   0.117969  -0.196755  -1.906627 
  6   1.221266   1.438778   0.865571 
  6   0.807998   0.270483   1.349166 
  1   0.634256   2.337167   1.015854 
  1  -0.117969   0.196755   1.906627 
  6   1.635901  -0.972988   1.195334 
  1   2.239675  -1.089626   2.104856 
  1   0.987632  -1.849296   1.145396 
  6   2.482134   1.535015   0.127997 
  1   2.882920   2.517315  -0.091872 
  6   3.120165   0.439520  -0.280190 
  1   4.039260   0.519446  -0.849052 
  6   2.551272  -0.930669  -0.031151 
  1   1.991682  -1.236938  -0.923478 
  1   3.354963  -1.660578   0.081874 
  6  -1.221266  -1.438778  -0.865571 
  1  -0.634256  -2.337167  -1.015854 
  6  -2.482134  -1.535015  -0.127997 
  1  -2.882920  -2.517315   0.091872 
  6  -1.635901   0.972988  -1.195334 
  1  -0.987632   1.849296  -1.145396 
  1  -2.239675   1.089626  -2.104856 
  6  -2.551272   0.930669   0.031151 
  1  -3.354963   1.660578  -0.081874 
  1  -1.991682   1.236938   0.923479 

qrep pcmdoc geomview  nodis nocav g03defaults tsare=0.075 
nsfe=28
NVESolv=36  SolvMW=84.1595   Rsolv=2.815 
eps=2.34745273026226 RhoS=1.36724935387803

   -3.120165    -0.439520     0.280190     1.700000     0.975000
   -0.807998    -0.270483    -1.349166     1.700000     0.975000
   -4.039260    -0.519446     0.849052     1.200000     0.975000
    0.117969    -0.196755    -1.906627     1.200000     0.975000
    1.221266     1.438778     0.865571     1.700000     0.975000
    0.807998     0.270483     1.349166     1.700000     0.975000
    0.634256     2.337167     1.015854     1.200000     0.975000
   -0.117969     0.196755     1.906627     1.200000     0.975000
    1.635901    -0.972988     1.195334     1.700000     0.975000
    2.239675    -1.089626     2.104856     1.200000     0.975000
    0.987632    -1.849296     1.145396     1.200000     0.975000
    2.482134     1.535015     0.127997     1.700000     0.975000
    2.882920     2.517315    -0.091872     1.200000     0.975000
    3.120165     0.439520    -0.280190     1.700000     0.975000
    4.039260     0.519446    -0.849052     1.200000     0.975000
    2.551272    -0.930669    -0.031151     1.700000     0.975000
    1.991682    -1.236938    -0.923478     1.200000     0.975000
    3.354963    -1.660578     0.081874     1.200000     0.975000
   -1.221266    -1.438778    -0.865571     1.700000     0.975000
   -0.634256    -2.337167    -1.015854     1.200000     0.975000
   -2.482134    -1.535015    -0.127997     1.700000     0.975000
   -2.882920    -2.517315     0.091872     1.200000     0.975000
   -1.635901     0.972988    -1.195334     1.700000     0.975000
   -0.987632     1.849296    -1.145396     1.200000     0.975000
   -2.239675     1.089626    -2.104856     1.200000     0.975000
   -2.551272     0.930669     0.031151     1.700000     0.975000
   -3.354963     1.660578    -0.081874     1.200000     0.975000
   -1.991682     1.236938     0.923479     1.200000     0.975000

--link1--
%chk=meso-TS_73_2_xp-095.chk
%nproc=24
%mem=48GB
#p uwb97xd guess=mix def2tzvp 
# scrf=(iefpcm,solvent=Cyclohexane,read) nosym 6d 10f 

endo-2
xp-pcm for eta=3

0 1
  6  -3.120165  -0.439520   0.280190 
  6  -0.807998  -0.270483  -1.349166 
  1  -4.039260  -0.519446   0.849052 
  1   0.117969  -0.196755  -1.906627 
  6   1.221266   1.438778   0.865571 
  6   0.807998   0.270483   1.349166 
  1   0.634256   2.337167   1.015854 
  1  -0.117969   0.196755   1.906627 
  6   1.635901  -0.972988   1.195334 
  1   2.239675  -1.089626   2.104856 
  1   0.987632  -1.849296   1.145396 
  6   2.482134   1.535015   0.127997 
  1   2.882920   2.517315  -0.091872 
  6   3.120165   0.439520  -0.280190 
  1   4.039260   0.519446  -0.849052 
  6   2.551272  -0.930669  -0.031151 
  1   1.991682  -1.236938  -0.923478 
  1   3.354963  -1.660578   0.081874 
  6  -1.221266  -1.438778  -0.865571 
  1  -0.634256  -2.337167  -1.015854 
  6  -2.482134  -1.535015  -0.127997 
  1  -2.882920  -2.517315   0.091872 
  6  -1.635901   0.972988  -1.195334 
  1  -0.987632   1.849296  -1.145396 
  1  -2.239675   1.089626  -2.104856 
  6  -2.551272   0.930669   0.031151 
  1  -3.354963   1.660578  -0.081874 
  1  -1.991682   1.236938   0.923479 

qrep pcmdoc geomview  nodis nocav g03defaults tsare=0.075 
nsfe=28
NVESolv=36  SolvMW=84.1595   Rsolv=2.815 
eps=2.39339884323873 RhoS=1.4620813611373

   -3.120165    -0.439520     0.280190     1.700000     0.950000
   -0.807998    -0.270483    -1.349166     1.700000     0.950000
   -4.039260    -0.519446     0.849052     1.200000     0.950000
    0.117969    -0.196755    -1.906627     1.200000     0.950000
    1.221266     1.438778     0.865571     1.700000     0.950000
    0.807998     0.270483     1.349166     1.700000     0.950000
    0.634256     2.337167     1.015854     1.200000     0.950000
   -0.117969     0.196755     1.906627     1.200000     0.950000
    1.635901    -0.972988     1.195334     1.700000     0.950000
    2.239675    -1.089626     2.104856     1.200000     0.950000
    0.987632    -1.849296     1.145396     1.200000     0.950000
    2.482134     1.535015     0.127997     1.700000     0.950000
    2.882920     2.517315    -0.091872     1.200000     0.950000
    3.120165     0.439520    -0.280190     1.700000     0.950000
    4.039260     0.519446    -0.849052     1.200000     0.950000
    2.551272    -0.930669    -0.031151     1.700000     0.950000
    1.991682    -1.236938    -0.923478     1.200000     0.950000
    3.354963    -1.660578     0.081874     1.200000     0.950000
   -1.221266    -1.438778    -0.865571     1.700000     0.950000
   -0.634256    -2.337167    -1.015854     1.200000     0.950000
   -2.482134    -1.535015    -0.127997     1.700000     0.950000
   -2.882920    -2.517315     0.091872     1.200000     0.950000
   -1.635901     0.972988    -1.195334     1.700000     0.950000
   -0.987632     1.849296    -1.145396     1.200000     0.950000
   -2.239675     1.089626    -2.104856     1.200000     0.950000
   -2.551272     0.930669     0.031151     1.700000     0.950000
   -3.354963     1.660578    -0.081874     1.200000     0.950000
   -1.991682     1.236938     0.923479     1.200000     0.950000

