%nproc=24
%mem=48GB
#p uwb97xd guess=mix def2tzvp 

endo-2

0 1
  6  -3.119795  -0.437221   0.247492 
  6  -0.578340  -0.206281  -0.977206 
  1  -4.083834  -0.549555   0.729878 
  1   0.378048  -0.118692  -1.472881 
  6   1.092194   1.406636   0.694410 
  6   0.578340   0.206281   0.977206 
  1   0.515168   2.308854   0.852046 
  1  -0.378048   0.118692   1.472881 
  6   1.472078  -0.999764   0.996357 
  1   1.926937  -1.001094   1.994675 
  1   0.902694  -1.924417   0.918920 
  6   2.420961   1.516155   0.111361 
  1   2.829573   2.505095  -0.059637 
  6   3.119795   0.437221  -0.247492 
  1   4.083834   0.549555  -0.729878 
  6   2.591362  -0.957062  -0.045617 
  1   2.249678  -1.353354  -1.009854 
  1   3.400522  -1.619980   0.268211 
  6  -1.092194  -1.406636  -0.694410 
  1  -0.515168  -2.308854  -0.852046 
  6  -2.420961  -1.516155  -0.111361 
  1  -2.829573  -2.505095   0.059637 
  6  -1.472078   0.999764  -0.996357 
  1  -0.902694   1.924417  -0.918920 
  1  -1.926937   1.001094  -1.994675 
  6  -2.591362   0.957062   0.045617 
  1  -3.400522   1.619980  -0.268211 
  1  -2.249678   1.353354   1.009854 

