%nproc=24
%mem=48GB
#p uwb97xd guess=mix def2tzvp 

endo-2

0 1
  6  -3.123533  -0.438909   0.249907 
  6  -0.634623  -0.226767  -1.083823 
  1  -4.085324  -0.546070   0.738063 
  1   0.336814  -0.133008  -1.549979 
  6   1.109786   1.414310   0.718484 
  6   0.634623   0.226767   1.083823 
  1   0.519777   2.312927   0.848046 
  1  -0.336814   0.133008   1.549979 
  6   1.495934  -1.001134   1.028869 
  1   1.973156  -1.081856   2.013692 
  1   0.887322  -1.896884   0.916876 
  6   2.431004   1.520477   0.106878 
  1   2.838163   2.507840  -0.075868 
  6   3.123533   0.438909  -0.249907 
  1   4.085324   0.546070  -0.738063 
  6   2.588421  -0.951995  -0.044511 
  1   2.216156  -1.333084  -1.003507 
  1   3.400666  -1.624754   0.238421 
  6  -1.109786  -1.414310  -0.718484 
  1  -0.519777  -2.312927  -0.848046 
  6  -2.431004  -1.520477  -0.106878 
  1  -2.838163  -2.507840   0.075868 
  6  -1.495934   1.001134  -1.028869 
  1  -0.887321   1.896884  -0.916876 
  1  -1.973156   1.081856  -2.013692 
  6  -2.588421   0.951995   0.044511 
  1  -3.400666   1.624754  -0.238421 
  1  -2.216156   1.333084   1.003507 

