%nproc=24
%mem=48GB
#p uwb97xd guess=mix def2tzvp 

endo-2

0 1
  6  -3.118361  -0.436777   0.246943 
  6  -0.550689  -0.194154  -0.923163 
  1  -4.082689  -0.549927   0.728507 
  1   0.380235  -0.117188  -1.468037 
  6   1.090471   1.404378   0.688612 
  6   0.550689   0.194154   0.923163 
  1   0.523473   2.309268   0.866874 
  1  -0.380235   0.117188   1.468037 
  6   1.466085  -0.999549   0.989146 
  1   1.909449  -0.964996   1.991428 
  1   0.914376  -1.936531   0.926034 
  6   2.417412   1.516294   0.112919 
  1   2.826958   2.505688  -0.053721 
  6   3.118361   0.436777  -0.246943 
  1   4.082689   0.549927  -0.728507 
  6   2.591732  -0.958129  -0.044606 
  1   2.252974  -1.356097  -1.009179 
  1   3.400602  -1.620168   0.272111 
  6  -1.090471  -1.404378  -0.688612 
  1  -0.523473  -2.309268  -0.866874 
  6  -2.417412  -1.516294  -0.112919 
  1  -2.826958  -2.505688   0.053721 
  6  -1.466085   0.999549  -0.989146 
  1  -0.914376   1.936531  -0.926034 
  1  -1.909449   0.964996  -1.991428 
  6  -2.591732   0.958129   0.044606 
  1  -3.400602   1.620168  -0.272111 
  1  -2.252974   1.356097   1.009179 

