%chk=meso-TS_67_2_xp-12.chk
%nproc=24
%mem=48GB
#p uwb97xd guess=mix def2tzvp 
# scrf=(iefpcm,solvent=Cyclohexane,read) nosym 6d 10f 

endo-2
xp-pcm for eta=3

0 1
  6  -3.123434  -0.440315   0.275397 
  6  -0.786456  -0.264710  -1.317722 
  1  -4.049438  -0.523755   0.832457 
  1   0.147212  -0.188449  -1.861678 
  6   1.206095   1.434790   0.844539 
  6   0.786456   0.264710   1.317722 
  1   0.616717   2.332368   0.990121 
  1  -0.147212   0.188449   1.861678 
  6   1.615689  -0.978810   1.173085 
  1   2.198299  -1.101438   2.095398 
  1   0.967232  -1.853572   1.105075 
  6   2.475417   1.533757   0.122289 
  1   2.875313   2.517075  -0.094658 
  6   3.123434   0.440315  -0.275397 
  1   4.049438   0.523755  -0.832457 
  6   2.559757  -0.933106  -0.031997 
  1   2.026432  -1.249959  -0.936638 
  1   3.367180  -1.654954   0.104310 
  6  -1.206095  -1.434790  -0.844539 
  1  -0.616717  -2.332368  -0.990121 
  6  -2.475417  -1.533757  -0.122289 
  1  -2.875313  -2.517076   0.094658 
  6  -1.615689   0.978810  -1.173085 
  1  -0.967232   1.853572  -1.105075 
  1  -2.198299   1.101438  -2.095398 
  6  -2.559757   0.933106   0.031997 
  1  -3.367180   1.654954  -0.104310 
  1  -2.026432   1.249959   0.936638 

qrep pcmdoc geomview  nodis nocav g03defaults tsare=0.075 
nsfe=28
NVESolv=36  SolvMW=84.1595   Rsolv=2.815 
eps=2.0165 RhoS=0.778099999999998

   -3.123434    -0.440315     0.275397     1.700000     1.200000
   -0.786456    -0.264710    -1.317722     1.700000     1.200000
   -4.049438    -0.523755     0.832457     1.200000     1.200000
    0.147212    -0.188449    -1.861678     1.200000     1.200000
    1.206095     1.434790     0.844539     1.700000     1.200000
    0.786456     0.264710     1.317722     1.700000     1.200000
    0.616717     2.332368     0.990121     1.200000     1.200000
   -0.147212     0.188449     1.861678     1.200000     1.200000
    1.615689    -0.978810     1.173085     1.700000     1.200000
    2.198299    -1.101438     2.095398     1.200000     1.200000
    0.967232    -1.853572     1.105075     1.200000     1.200000
    2.475417     1.533757     0.122289     1.700000     1.200000
    2.875313     2.517075    -0.094658     1.200000     1.200000
    3.123434     0.440315    -0.275397     1.700000     1.200000
    4.049438     0.523755    -0.832457     1.200000     1.200000
    2.559757    -0.933106    -0.031997     1.700000     1.200000
    2.026432    -1.249959    -0.936638     1.200000     1.200000
    3.367180    -1.654954     0.104310     1.200000     1.200000
   -1.206095    -1.434790    -0.844539     1.700000     1.200000
   -0.616717    -2.332368    -0.990121     1.200000     1.200000
   -2.475417    -1.533757    -0.122289     1.700000     1.200000
   -2.875313    -2.517076     0.094658     1.200000     1.200000
   -1.615689     0.978810    -1.173085     1.700000     1.200000
   -0.967232     1.853572    -1.105075     1.200000     1.200000
   -2.198299     1.101438    -2.095398     1.200000     1.200000
   -2.559757     0.933106     0.031997     1.700000     1.200000
   -3.367180     1.654954    -0.104310     1.200000     1.200000
   -2.026432     1.249959     0.936638     1.200000     1.200000

--link1--
%chk=meso-TS_67_2_xp-115.chk
%nproc=24
%mem=48GB
#p uwb97xd guess=mix def2tzvp 
# scrf=(iefpcm,solvent=Cyclohexane,read) nosym 6d 10f 

endo-2
xp-pcm for eta=3

0 1
  6  -3.123434  -0.440315   0.275397 
  6  -0.786456  -0.264710  -1.317722 
  1  -4.049438  -0.523755   0.832457 
  1   0.147212  -0.188449  -1.861678 
  6   1.206095   1.434790   0.844539 
  6   0.786456   0.264710   1.317722 
  1   0.616717   2.332368   0.990121 
  1  -0.147212   0.188449   1.861678 
  6   1.615689  -0.978810   1.173085 
  1   2.198299  -1.101438   2.095398 
  1   0.967232  -1.853572   1.105075 
  6   2.475417   1.533757   0.122289 
  1   2.875313   2.517075  -0.094658 
  6   3.123434   0.440315  -0.275397 
  1   4.049438   0.523755  -0.832457 
  6   2.559757  -0.933106  -0.031997 
  1   2.026432  -1.249959  -0.936638 
  1   3.367180  -1.654954   0.104310 
  6  -1.206095  -1.434790  -0.844539 
  1  -0.616717  -2.332368  -0.990121 
  6  -2.475417  -1.533757  -0.122289 
  1  -2.875313  -2.517076   0.094658 
  6  -1.615689   0.978810  -1.173085 
  1  -0.967232   1.853572  -1.105075 
  1  -2.198299   1.101438  -2.095398 
  6  -2.559757   0.933106   0.031997 
  1  -3.367180   1.654954  -0.104310 
  1  -2.026432   1.249959   0.936638 

qrep pcmdoc geomview  nodis nocav g03defaults tsare=0.075 
nsfe=28
NVESolv=36  SolvMW=84.1595   Rsolv=2.815 
eps=2.08074995319988 RhoS=0.87957140140931

   -3.123434    -0.440315     0.275397     1.700000     1.150000
   -0.786456    -0.264710    -1.317722     1.700000     1.150000
   -4.049438    -0.523755     0.832457     1.200000     1.150000
    0.147212    -0.188449    -1.861678     1.200000     1.150000
    1.206095     1.434790     0.844539     1.700000     1.150000
    0.786456     0.264710     1.317722     1.700000     1.150000
    0.616717     2.332368     0.990121     1.200000     1.150000
   -0.147212     0.188449     1.861678     1.200000     1.150000
    1.615689    -0.978810     1.173085     1.700000     1.150000
    2.198299    -1.101438     2.095398     1.200000     1.150000
    0.967232    -1.853572     1.105075     1.200000     1.150000
    2.475417     1.533757     0.122289     1.700000     1.150000
    2.875313     2.517075    -0.094658     1.200000     1.150000
    3.123434     0.440315    -0.275397     1.700000     1.150000
    4.049438     0.523755    -0.832457     1.200000     1.150000
    2.559757    -0.933106    -0.031997     1.700000     1.150000
    2.026432    -1.249959    -0.936638     1.200000     1.150000
    3.367180    -1.654954     0.104310     1.200000     1.150000
   -1.206095    -1.434790    -0.844539     1.700000     1.150000
   -0.616717    -2.332368    -0.990121     1.200000     1.150000
   -2.475417    -1.533757    -0.122289     1.700000     1.150000
   -2.875313    -2.517076     0.094658     1.200000     1.150000
   -1.615689     0.978810    -1.173085     1.700000     1.150000
   -0.967232     1.853572    -1.105075     1.200000     1.150000
   -2.198299     1.101438    -2.095398     1.200000     1.150000
   -2.559757     0.933106     0.031997     1.700000     1.150000
   -3.367180     1.654954    -0.104310     1.200000     1.150000
   -2.026432     1.249959     0.936638     1.200000     1.150000

--link1--
%chk=meso-TS_67_2_xp-110.chk
%nproc=24
%mem=48GB
#p uwb97xd guess=mix def2tzvp 
# scrf=(iefpcm,solvent=Cyclohexane,read) nosym 6d 10f 

endo-2
xp-pcm for eta=3

0 1
  6  -3.123434  -0.440315   0.275397 
  6  -0.786456  -0.264710  -1.317722 
  1  -4.049438  -0.523755   0.832457 
  1   0.147212  -0.188449  -1.861678 
  6   1.206095   1.434790   0.844539 
  6   0.786456   0.264710   1.317722 
  1   0.616717   2.332368   0.990121 
  1  -0.147212   0.188449   1.861678 
  6   1.615689  -0.978810   1.173085 
  1   2.198299  -1.101438   2.095398 
  1   0.967232  -1.853572   1.105075 
  6   2.475417   1.533757   0.122289 
  1   2.875313   2.517075  -0.094658 
  6   3.123434   0.440315  -0.275397 
  1   4.049438   0.523755  -0.832457 
  6   2.559757  -0.933106  -0.031997 
  1   2.026432  -1.249959  -0.936638 
  1   3.367180  -1.654954   0.104310 
  6  -1.206095  -1.434790  -0.844539 
  1  -0.616717  -2.332368  -0.990121 
  6  -2.475417  -1.533757  -0.122289 
  1  -2.875313  -2.517076   0.094658 
  6  -1.615689   0.978810  -1.173085 
  1  -0.967232   1.853572  -1.105075 
  1  -2.198299   1.101438  -2.095398 
  6  -2.559757   0.933106   0.031997 
  1  -3.367180   1.654954  -0.104310 
  1  -2.026432   1.249959   0.936638 

qrep pcmdoc geomview  nodis nocav g03defaults tsare=0.075 
nsfe=28
NVESolv=36  SolvMW=84.1595   Rsolv=2.815 
eps=2.14797859684703 RhoS=0.992403372535132

   -3.123434    -0.440315     0.275397     1.700000     1.100000
   -0.786456    -0.264710    -1.317722     1.700000     1.100000
   -4.049438    -0.523755     0.832457     1.200000     1.100000
    0.147212    -0.188449    -1.861678     1.200000     1.100000
    1.206095     1.434790     0.844539     1.700000     1.100000
    0.786456     0.264710     1.317722     1.700000     1.100000
    0.616717     2.332368     0.990121     1.200000     1.100000
   -0.147212     0.188449     1.861678     1.200000     1.100000
    1.615689    -0.978810     1.173085     1.700000     1.100000
    2.198299    -1.101438     2.095398     1.200000     1.100000
    0.967232    -1.853572     1.105075     1.200000     1.100000
    2.475417     1.533757     0.122289     1.700000     1.100000
    2.875313     2.517075    -0.094658     1.200000     1.100000
    3.123434     0.440315    -0.275397     1.700000     1.100000
    4.049438     0.523755    -0.832457     1.200000     1.100000
    2.559757    -0.933106    -0.031997     1.700000     1.100000
    2.026432    -1.249959    -0.936638     1.200000     1.100000
    3.367180    -1.654954     0.104310     1.200000     1.100000
   -1.206095    -1.434790    -0.844539     1.700000     1.100000
   -0.616717    -2.332368    -0.990121     1.200000     1.100000
   -2.475417    -1.533757    -0.122289     1.700000     1.100000
   -2.875313    -2.517076     0.094658     1.200000     1.100000
   -1.615689     0.978810    -1.173085     1.700000     1.100000
   -0.967232     1.853572    -1.105075     1.200000     1.100000
   -2.198299     1.101438    -2.095398     1.200000     1.100000
   -2.559757     0.933106     0.031997     1.700000     1.100000
   -3.367180     1.654954    -0.104310     1.200000     1.100000
   -2.026432     1.249959     0.936638     1.200000     1.100000

--link1--
%chk=meso-TS_67_2_xp-105.chk
%nproc=24
%mem=48GB
#p uwb97xd guess=mix def2tzvp 
# scrf=(iefpcm,solvent=Cyclohexane,read) nosym 6d 10f 

endo-2
xp-pcm for eta=3

0 1
  6  -3.123434  -0.440315   0.275397 
  6  -0.786456  -0.264710  -1.317722 
  1  -4.049438  -0.523755   0.832457 
  1   0.147212  -0.188449  -1.861678 
  6   1.206095   1.434790   0.844539 
  6   0.786456   0.264710   1.317722 
  1   0.616717   2.332368   0.990121 
  1  -0.147212   0.188449   1.861678 
  6   1.615689  -0.978810   1.173085 
  1   2.198299  -1.101438   2.095398 
  1   0.967232  -1.853572   1.105075 
  6   2.475417   1.533757   0.122289 
  1   2.875313   2.517075  -0.094658 
  6   3.123434   0.440315  -0.275397 
  1   4.049438   0.523755  -0.832457 
  6   2.559757  -0.933106  -0.031997 
  1   2.026432  -1.249959  -0.936638 
  1   3.367180  -1.654954   0.104310 
  6  -1.206095  -1.434790  -0.844539 
  1  -0.616717  -2.332368  -0.990121 
  6  -2.475417  -1.533757  -0.122289 
  1  -2.875313  -2.517076   0.094658 
  6  -1.615689   0.978810  -1.173085 
  1  -0.967232   1.853572  -1.105075 
  1  -2.198299   1.101438  -2.095398 
  6  -2.559757   0.933106   0.031997 
  1  -3.367180   1.654954  -0.104310 
  1  -2.026432   1.249959   0.936638 

qrep pcmdoc geomview  nodis nocav g03defaults tsare=0.075 
nsfe=28
NVESolv=36  SolvMW=84.1595   Rsolv=2.815 
eps=2.22376880117094 RhoS=1.12776705486046

   -3.123434    -0.440315     0.275397     1.700000     1.050000
   -0.786456    -0.264710    -1.317722     1.700000     1.050000
   -4.049438    -0.523755     0.832457     1.200000     1.050000
    0.147212    -0.188449    -1.861678     1.200000     1.050000
    1.206095     1.434790     0.844539     1.700000     1.050000
    0.786456     0.264710     1.317722     1.700000     1.050000
    0.616717     2.332368     0.990121     1.200000     1.050000
   -0.147212     0.188449     1.861678     1.200000     1.050000
    1.615689    -0.978810     1.173085     1.700000     1.050000
    2.198299    -1.101438     2.095398     1.200000     1.050000
    0.967232    -1.853572     1.105075     1.200000     1.050000
    2.475417     1.533757     0.122289     1.700000     1.050000
    2.875313     2.517075    -0.094658     1.200000     1.050000
    3.123434     0.440315    -0.275397     1.700000     1.050000
    4.049438     0.523755    -0.832457     1.200000     1.050000
    2.559757    -0.933106    -0.031997     1.700000     1.050000
    2.026432    -1.249959    -0.936638     1.200000     1.050000
    3.367180    -1.654954     0.104310     1.200000     1.050000
   -1.206095    -1.434790    -0.844539     1.700000     1.050000
   -0.616717    -2.332368    -0.990121     1.200000     1.050000
   -2.475417    -1.533757    -0.122289     1.700000     1.050000
   -2.875313    -2.517076     0.094658     1.200000     1.050000
   -1.615689     0.978810    -1.173085     1.700000     1.050000
   -0.967232     1.853572    -1.105075     1.200000     1.050000
   -2.198299     1.101438    -2.095398     1.200000     1.050000
   -2.559757     0.933106     0.031997     1.700000     1.050000
   -3.367180     1.654954    -0.104310     1.200000     1.050000
   -2.026432     1.249959     0.936638     1.200000     1.050000

--link1--
%chk=meso-TS_67_2_xp-100.chk
%nproc=24
%mem=48GB
#p uwb97xd guess=mix def2tzvp 
# scrf=(iefpcm,solvent=Cyclohexane,read) nosym 6d 10f 

endo-2
xp-pcm for eta=3

0 1
  6  -3.123434  -0.440315   0.275397 
  6  -0.786456  -0.264710  -1.317722 
  1  -4.049438  -0.523755   0.832457 
  1   0.147212  -0.188449  -1.861678 
  6   1.206095   1.434790   0.844539 
  6   0.786456   0.264710   1.317722 
  1   0.616717   2.332368   0.990121 
  1  -0.147212   0.188449   1.861678 
  6   1.615689  -0.978810   1.173085 
  1   2.198299  -1.101438   2.095398 
  1   0.967232  -1.853572   1.105075 
  6   2.475417   1.533757   0.122289 
  1   2.875313   2.517075  -0.094658 
  6   3.123434   0.440315  -0.275397 
  1   4.049438   0.523755  -0.832457 
  6   2.559757  -0.933106  -0.031997 
  1   2.026432  -1.249959  -0.936638 
  1   3.367180  -1.654954   0.104310 
  6  -1.206095  -1.434790  -0.844539 
  1  -0.616717  -2.332368  -0.990121 
  6  -2.475417  -1.533757  -0.122289 
  1  -2.875313  -2.517076   0.094658 
  6  -1.615689   0.978810  -1.173085 
  1  -0.967232   1.853572  -1.105075 
  1  -2.198299   1.101438  -2.095398 
  6  -2.559757   0.933106   0.031997 
  1  -3.367180   1.654954  -0.104310 
  1  -2.026432   1.249959   0.936638 

qrep pcmdoc geomview  nodis nocav g03defaults tsare=0.075 
nsfe=28
NVESolv=36  SolvMW=84.1595   Rsolv=2.815 
eps=2.30480546666792 RhoS=1.28207131826017

   -3.123434    -0.440315     0.275397     1.700000     1.000000
   -0.786456    -0.264710    -1.317722     1.700000     1.000000
   -4.049438    -0.523755     0.832457     1.200000     1.000000
    0.147212    -0.188449    -1.861678     1.200000     1.000000
    1.206095     1.434790     0.844539     1.700000     1.000000
    0.786456     0.264710     1.317722     1.700000     1.000000
    0.616717     2.332368     0.990121     1.200000     1.000000
   -0.147212     0.188449     1.861678     1.200000     1.000000
    1.615689    -0.978810     1.173085     1.700000     1.000000
    2.198299    -1.101438     2.095398     1.200000     1.000000
    0.967232    -1.853572     1.105075     1.200000     1.000000
    2.475417     1.533757     0.122289     1.700000     1.000000
    2.875313     2.517075    -0.094658     1.200000     1.000000
    3.123434     0.440315    -0.275397     1.700000     1.000000
    4.049438     0.523755    -0.832457     1.200000     1.000000
    2.559757    -0.933106    -0.031997     1.700000     1.000000
    2.026432    -1.249959    -0.936638     1.200000     1.000000
    3.367180    -1.654954     0.104310     1.200000     1.000000
   -1.206095    -1.434790    -0.844539     1.700000     1.000000
   -0.616717    -2.332368    -0.990121     1.200000     1.000000
   -2.475417    -1.533757    -0.122289     1.700000     1.000000
   -2.875313    -2.517076     0.094658     1.200000     1.000000
   -1.615689     0.978810    -1.173085     1.700000     1.000000
   -0.967232     1.853572    -1.105075     1.200000     1.000000
   -2.198299     1.101438    -2.095398     1.200000     1.000000
   -2.559757     0.933106     0.031997     1.700000     1.000000
   -3.367180     1.654954    -0.104310     1.200000     1.000000
   -2.026432     1.249959     0.936638     1.200000     1.000000

--link1--
%chk=meso-TS_67_2_xp-0975.chk
%nproc=24
%mem=48GB
#p uwb97xd guess=mix def2tzvp 
# scrf=(iefpcm,solvent=Cyclohexane,read) nosym 6d 10f 

endo-2
xp-pcm for eta=3

0 1
  6  -3.123434  -0.440315   0.275397 
  6  -0.786456  -0.264710  -1.317722 
  1  -4.049438  -0.523755   0.832457 
  1   0.147212  -0.188449  -1.861678 
  6   1.206095   1.434790   0.844539 
  6   0.786456   0.264710   1.317722 
  1   0.616717   2.332368   0.990121 
  1  -0.147212   0.188449   1.861678 
  6   1.615689  -0.978810   1.173085 
  1   2.198299  -1.101438   2.095398 
  1   0.967232  -1.853572   1.105075 
  6   2.475417   1.533757   0.122289 
  1   2.875313   2.517075  -0.094658 
  6   3.123434   0.440315  -0.275397 
  1   4.049438   0.523755  -0.832457 
  6   2.559757  -0.933106  -0.031997 
  1   2.026432  -1.249959  -0.936638 
  1   3.367180  -1.654954   0.104310 
  6  -1.206095  -1.434790  -0.844539 
  1  -0.616717  -2.332368  -0.990121 
  6  -2.475417  -1.533757  -0.122289 
  1  -2.875313  -2.517076   0.094658 
  6  -1.615689   0.978810  -1.173085 
  1  -0.967232   1.853572  -1.105075 
  1  -2.198299   1.101438  -2.095398 
  6  -2.559757   0.933106   0.031997 
  1  -3.367180   1.654954  -0.104310 
  1  -2.026432   1.249959   0.936638 

qrep pcmdoc geomview  nodis nocav g03defaults tsare=0.075 
nsfe=28
NVESolv=36  SolvMW=84.1595   Rsolv=2.815 
eps=2.34745273026226 RhoS=1.36724935387803

   -3.123434    -0.440315     0.275397     1.700000     0.975000
   -0.786456    -0.264710    -1.317722     1.700000     0.975000
   -4.049438    -0.523755     0.832457     1.200000     0.975000
    0.147212    -0.188449    -1.861678     1.200000     0.975000
    1.206095     1.434790     0.844539     1.700000     0.975000
    0.786456     0.264710     1.317722     1.700000     0.975000
    0.616717     2.332368     0.990121     1.200000     0.975000
   -0.147212     0.188449     1.861678     1.200000     0.975000
    1.615689    -0.978810     1.173085     1.700000     0.975000
    2.198299    -1.101438     2.095398     1.200000     0.975000
    0.967232    -1.853572     1.105075     1.200000     0.975000
    2.475417     1.533757     0.122289     1.700000     0.975000
    2.875313     2.517075    -0.094658     1.200000     0.975000
    3.123434     0.440315    -0.275397     1.700000     0.975000
    4.049438     0.523755    -0.832457     1.200000     0.975000
    2.559757    -0.933106    -0.031997     1.700000     0.975000
    2.026432    -1.249959    -0.936638     1.200000     0.975000
    3.367180    -1.654954     0.104310     1.200000     0.975000
   -1.206095    -1.434790    -0.844539     1.700000     0.975000
   -0.616717    -2.332368    -0.990121     1.200000     0.975000
   -2.475417    -1.533757    -0.122289     1.700000     0.975000
   -2.875313    -2.517076     0.094658     1.200000     0.975000
   -1.615689     0.978810    -1.173085     1.700000     0.975000
   -0.967232     1.853572    -1.105075     1.200000     0.975000
   -2.198299     1.101438    -2.095398     1.200000     0.975000
   -2.559757     0.933106     0.031997     1.700000     0.975000
   -3.367180     1.654954    -0.104310     1.200000     0.975000
   -2.026432     1.249959     0.936638     1.200000     0.975000

--link1--
%chk=meso-TS_67_2_xp-095.chk
%nproc=24
%mem=48GB
#p uwb97xd guess=mix def2tzvp 
# scrf=(iefpcm,solvent=Cyclohexane,read) nosym 6d 10f 

endo-2
xp-pcm for eta=3

0 1
  6  -3.123434  -0.440315   0.275397 
  6  -0.786456  -0.264710  -1.317722 
  1  -4.049438  -0.523755   0.832457 
  1   0.147212  -0.188449  -1.861678 
  6   1.206095   1.434790   0.844539 
  6   0.786456   0.264710   1.317722 
  1   0.616717   2.332368   0.990121 
  1  -0.147212   0.188449   1.861678 
  6   1.615689  -0.978810   1.173085 
  1   2.198299  -1.101438   2.095398 
  1   0.967232  -1.853572   1.105075 
  6   2.475417   1.533757   0.122289 
  1   2.875313   2.517075  -0.094658 
  6   3.123434   0.440315  -0.275397 
  1   4.049438   0.523755  -0.832457 
  6   2.559757  -0.933106  -0.031997 
  1   2.026432  -1.249959  -0.936638 
  1   3.367180  -1.654954   0.104310 
  6  -1.206095  -1.434790  -0.844539 
  1  -0.616717  -2.332368  -0.990121 
  6  -2.475417  -1.533757  -0.122289 
  1  -2.875313  -2.517076   0.094658 
  6  -1.615689   0.978810  -1.173085 
  1  -0.967232   1.853572  -1.105075 
  1  -2.198299   1.101438  -2.095398 
  6  -2.559757   0.933106   0.031997 
  1  -3.367180   1.654954  -0.104310 
  1  -2.026432   1.249959   0.936638 

qrep pcmdoc geomview  nodis nocav g03defaults tsare=0.075 
nsfe=28
NVESolv=36  SolvMW=84.1595   Rsolv=2.815 
eps=2.39339884323873 RhoS=1.4620813611373

   -3.123434    -0.440315     0.275397     1.700000     0.950000
   -0.786456    -0.264710    -1.317722     1.700000     0.950000
   -4.049438    -0.523755     0.832457     1.200000     0.950000
    0.147212    -0.188449    -1.861678     1.200000     0.950000
    1.206095     1.434790     0.844539     1.700000     0.950000
    0.786456     0.264710     1.317722     1.700000     0.950000
    0.616717     2.332368     0.990121     1.200000     0.950000
   -0.147212     0.188449     1.861678     1.200000     0.950000
    1.615689    -0.978810     1.173085     1.700000     0.950000
    2.198299    -1.101438     2.095398     1.200000     0.950000
    0.967232    -1.853572     1.105075     1.200000     0.950000
    2.475417     1.533757     0.122289     1.700000     0.950000
    2.875313     2.517075    -0.094658     1.200000     0.950000
    3.123434     0.440315    -0.275397     1.700000     0.950000
    4.049438     0.523755    -0.832457     1.200000     0.950000
    2.559757    -0.933106    -0.031997     1.700000     0.950000
    2.026432    -1.249959    -0.936638     1.200000     0.950000
    3.367180    -1.654954     0.104310     1.200000     0.950000
   -1.206095    -1.434790    -0.844539     1.700000     0.950000
   -0.616717    -2.332368    -0.990121     1.200000     0.950000
   -2.475417    -1.533757    -0.122289     1.700000     0.950000
   -2.875313    -2.517076     0.094658     1.200000     0.950000
   -1.615689     0.978810    -1.173085     1.700000     0.950000
   -0.967232     1.853572    -1.105075     1.200000     0.950000
   -2.198299     1.101438    -2.095398     1.200000     0.950000
   -2.559757     0.933106     0.031997     1.700000     0.950000
   -3.367180     1.654954    -0.104310     1.200000     0.950000
   -2.026432     1.249959     0.936638     1.200000     0.950000

