%chk=meso-TS_91_2_xp-12.chk
%nproc=24
%mem=48GB
#p uwb97xd guess=mix def2tzvp 
# scrf=(iefpcm,solvent=Cyclohexane,read) nosym 6d 10f 

endo-2
xp-pcm for eta=3

0 1
  6  -3.093267  -0.435973   0.300434 
  6  -0.866740  -0.289096  -1.445431 
  1  -3.986142  -0.504800   0.910939 
  1   0.030308  -0.224943  -2.049778 
  6   1.262349   1.452521   0.934535 
  6   0.866740   0.289096   1.445431 
  1   0.688360   2.355340   1.107147 
  1  -0.030308   0.224943   2.049778 
  6   1.683814  -0.957175   1.256502 
  1   2.348618  -1.062059   2.124256 
  1   1.035891  -1.835298   1.258793 
  6   2.490317   1.538213   0.141849 
  1   2.893062   2.516708  -0.090946 
  6   3.093267   0.435973  -0.300434 
  1   3.986142   0.504800  -0.910939 
  6   2.511845  -0.924519  -0.029450 
  1   1.879054  -1.202820  -0.880995 
  1   3.302586  -1.675290   0.018282 
  6  -1.262349  -1.452521  -0.934535 
  1  -0.688360  -2.355340  -1.107147 
  6  -2.490317  -1.538213  -0.141849 
  1  -2.893062  -2.516708   0.090946 
  6  -1.683814   0.957175  -1.256502 
  1  -1.035891   1.835298  -1.258793 
  1  -2.348618   1.062059  -2.124256 
  6  -2.511845   0.924519   0.029450 
  1  -3.302586   1.675290  -0.018282 
  1  -1.879054   1.202820   0.880995 

qrep pcmdoc geomview  nodis nocav g03defaults tsare=0.075 
nsfe=28
NVESolv=36  SolvMW=84.1595   Rsolv=2.815 
eps=2.0165 RhoS=0.778099999999998

   -3.093267    -0.435973     0.300434     1.700000     1.200000
   -0.866740    -0.289096    -1.445431     1.700000     1.200000
   -3.986142    -0.504800     0.910939     1.200000     1.200000
    0.030308    -0.224943    -2.049778     1.200000     1.200000
    1.262349     1.452521     0.934535     1.700000     1.200000
    0.866740     0.289096     1.445431     1.700000     1.200000
    0.688360     2.355340     1.107147     1.200000     1.200000
   -0.030308     0.224943     2.049778     1.200000     1.200000
    1.683814    -0.957175     1.256502     1.700000     1.200000
    2.348618    -1.062059     2.124256     1.200000     1.200000
    1.035891    -1.835298     1.258793     1.200000     1.200000
    2.490317     1.538213     0.141849     1.700000     1.200000
    2.893062     2.516708    -0.090946     1.200000     1.200000
    3.093267     0.435973    -0.300434     1.700000     1.200000
    3.986142     0.504800    -0.910939     1.200000     1.200000
    2.511845    -0.924519    -0.029450     1.700000     1.200000
    1.879054    -1.202820    -0.880995     1.200000     1.200000
    3.302586    -1.675290     0.018282     1.200000     1.200000
   -1.262349    -1.452521    -0.934535     1.700000     1.200000
   -0.688360    -2.355340    -1.107147     1.200000     1.200000
   -2.490317    -1.538213    -0.141849     1.700000     1.200000
   -2.893062    -2.516708     0.090946     1.200000     1.200000
   -1.683814     0.957175    -1.256502     1.700000     1.200000
   -1.035891     1.835298    -1.258793     1.200000     1.200000
   -2.348618     1.062059    -2.124256     1.200000     1.200000
   -2.511845     0.924519     0.029450     1.700000     1.200000
   -3.302586     1.675290    -0.018282     1.200000     1.200000
   -1.879054     1.202820     0.880995     1.200000     1.200000

--link1--
%chk=meso-TS_91_2_xp-115.chk
%nproc=24
%mem=48GB
#p uwb97xd guess=mix def2tzvp 
# scrf=(iefpcm,solvent=Cyclohexane,read) nosym 6d 10f 

endo-2
xp-pcm for eta=3

0 1
  6  -3.093267  -0.435973   0.300434 
  6  -0.866740  -0.289096  -1.445431 
  1  -3.986142  -0.504800   0.910939 
  1   0.030308  -0.224943  -2.049778 
  6   1.262349   1.452521   0.934535 
  6   0.866740   0.289096   1.445431 
  1   0.688360   2.355340   1.107147 
  1  -0.030308   0.224943   2.049778 
  6   1.683814  -0.957175   1.256502 
  1   2.348618  -1.062059   2.124256 
  1   1.035891  -1.835298   1.258793 
  6   2.490317   1.538213   0.141849 
  1   2.893062   2.516708  -0.090946 
  6   3.093267   0.435973  -0.300434 
  1   3.986142   0.504800  -0.910939 
  6   2.511845  -0.924519  -0.029450 
  1   1.879054  -1.202820  -0.880995 
  1   3.302586  -1.675290   0.018282 
  6  -1.262349  -1.452521  -0.934535 
  1  -0.688360  -2.355340  -1.107147 
  6  -2.490317  -1.538213  -0.141849 
  1  -2.893062  -2.516708   0.090946 
  6  -1.683814   0.957175  -1.256502 
  1  -1.035891   1.835298  -1.258793 
  1  -2.348618   1.062059  -2.124256 
  6  -2.511845   0.924519   0.029450 
  1  -3.302586   1.675290  -0.018282 
  1  -1.879054   1.202820   0.880995 

qrep pcmdoc geomview  nodis nocav g03defaults tsare=0.075 
nsfe=28
NVESolv=36  SolvMW=84.1595   Rsolv=2.815 
eps=2.08074995319988 RhoS=0.87957140140931

   -3.093267    -0.435973     0.300434     1.700000     1.150000
   -0.866740    -0.289096    -1.445431     1.700000     1.150000
   -3.986142    -0.504800     0.910939     1.200000     1.150000
    0.030308    -0.224943    -2.049778     1.200000     1.150000
    1.262349     1.452521     0.934535     1.700000     1.150000
    0.866740     0.289096     1.445431     1.700000     1.150000
    0.688360     2.355340     1.107147     1.200000     1.150000
   -0.030308     0.224943     2.049778     1.200000     1.150000
    1.683814    -0.957175     1.256502     1.700000     1.150000
    2.348618    -1.062059     2.124256     1.200000     1.150000
    1.035891    -1.835298     1.258793     1.200000     1.150000
    2.490317     1.538213     0.141849     1.700000     1.150000
    2.893062     2.516708    -0.090946     1.200000     1.150000
    3.093267     0.435973    -0.300434     1.700000     1.150000
    3.986142     0.504800    -0.910939     1.200000     1.150000
    2.511845    -0.924519    -0.029450     1.700000     1.150000
    1.879054    -1.202820    -0.880995     1.200000     1.150000
    3.302586    -1.675290     0.018282     1.200000     1.150000
   -1.262349    -1.452521    -0.934535     1.700000     1.150000
   -0.688360    -2.355340    -1.107147     1.200000     1.150000
   -2.490317    -1.538213    -0.141849     1.700000     1.150000
   -2.893062    -2.516708     0.090946     1.200000     1.150000
   -1.683814     0.957175    -1.256502     1.700000     1.150000
   -1.035891     1.835298    -1.258793     1.200000     1.150000
   -2.348618     1.062059    -2.124256     1.200000     1.150000
   -2.511845     0.924519     0.029450     1.700000     1.150000
   -3.302586     1.675290    -0.018282     1.200000     1.150000
   -1.879054     1.202820     0.880995     1.200000     1.150000

--link1--
%chk=meso-TS_91_2_xp-110.chk
%nproc=24
%mem=48GB
#p uwb97xd guess=mix def2tzvp 
# scrf=(iefpcm,solvent=Cyclohexane,read) nosym 6d 10f 

endo-2
xp-pcm for eta=3

0 1
  6  -3.093267  -0.435973   0.300434 
  6  -0.866740  -0.289096  -1.445431 
  1  -3.986142  -0.504800   0.910939 
  1   0.030308  -0.224943  -2.049778 
  6   1.262349   1.452521   0.934535 
  6   0.866740   0.289096   1.445431 
  1   0.688360   2.355340   1.107147 
  1  -0.030308   0.224943   2.049778 
  6   1.683814  -0.957175   1.256502 
  1   2.348618  -1.062059   2.124256 
  1   1.035891  -1.835298   1.258793 
  6   2.490317   1.538213   0.141849 
  1   2.893062   2.516708  -0.090946 
  6   3.093267   0.435973  -0.300434 
  1   3.986142   0.504800  -0.910939 
  6   2.511845  -0.924519  -0.029450 
  1   1.879054  -1.202820  -0.880995 
  1   3.302586  -1.675290   0.018282 
  6  -1.262349  -1.452521  -0.934535 
  1  -0.688360  -2.355340  -1.107147 
  6  -2.490317  -1.538213  -0.141849 
  1  -2.893062  -2.516708   0.090946 
  6  -1.683814   0.957175  -1.256502 
  1  -1.035891   1.835298  -1.258793 
  1  -2.348618   1.062059  -2.124256 
  6  -2.511845   0.924519   0.029450 
  1  -3.302586   1.675290  -0.018282 
  1  -1.879054   1.202820   0.880995 

qrep pcmdoc geomview  nodis nocav g03defaults tsare=0.075 
nsfe=28
NVESolv=36  SolvMW=84.1595   Rsolv=2.815 
eps=2.14797859684703 RhoS=0.992403372535132

   -3.093267    -0.435973     0.300434     1.700000     1.100000
   -0.866740    -0.289096    -1.445431     1.700000     1.100000
   -3.986142    -0.504800     0.910939     1.200000     1.100000
    0.030308    -0.224943    -2.049778     1.200000     1.100000
    1.262349     1.452521     0.934535     1.700000     1.100000
    0.866740     0.289096     1.445431     1.700000     1.100000
    0.688360     2.355340     1.107147     1.200000     1.100000
   -0.030308     0.224943     2.049778     1.200000     1.100000
    1.683814    -0.957175     1.256502     1.700000     1.100000
    2.348618    -1.062059     2.124256     1.200000     1.100000
    1.035891    -1.835298     1.258793     1.200000     1.100000
    2.490317     1.538213     0.141849     1.700000     1.100000
    2.893062     2.516708    -0.090946     1.200000     1.100000
    3.093267     0.435973    -0.300434     1.700000     1.100000
    3.986142     0.504800    -0.910939     1.200000     1.100000
    2.511845    -0.924519    -0.029450     1.700000     1.100000
    1.879054    -1.202820    -0.880995     1.200000     1.100000
    3.302586    -1.675290     0.018282     1.200000     1.100000
   -1.262349    -1.452521    -0.934535     1.700000     1.100000
   -0.688360    -2.355340    -1.107147     1.200000     1.100000
   -2.490317    -1.538213    -0.141849     1.700000     1.100000
   -2.893062    -2.516708     0.090946     1.200000     1.100000
   -1.683814     0.957175    -1.256502     1.700000     1.100000
   -1.035891     1.835298    -1.258793     1.200000     1.100000
   -2.348618     1.062059    -2.124256     1.200000     1.100000
   -2.511845     0.924519     0.029450     1.700000     1.100000
   -3.302586     1.675290    -0.018282     1.200000     1.100000
   -1.879054     1.202820     0.880995     1.200000     1.100000

--link1--
%chk=meso-TS_91_2_xp-105.chk
%nproc=24
%mem=48GB
#p uwb97xd guess=mix def2tzvp 
# scrf=(iefpcm,solvent=Cyclohexane,read) nosym 6d 10f 

endo-2
xp-pcm for eta=3

0 1
  6  -3.093267  -0.435973   0.300434 
  6  -0.866740  -0.289096  -1.445431 
  1  -3.986142  -0.504800   0.910939 
  1   0.030308  -0.224943  -2.049778 
  6   1.262349   1.452521   0.934535 
  6   0.866740   0.289096   1.445431 
  1   0.688360   2.355340   1.107147 
  1  -0.030308   0.224943   2.049778 
  6   1.683814  -0.957175   1.256502 
  1   2.348618  -1.062059   2.124256 
  1   1.035891  -1.835298   1.258793 
  6   2.490317   1.538213   0.141849 
  1   2.893062   2.516708  -0.090946 
  6   3.093267   0.435973  -0.300434 
  1   3.986142   0.504800  -0.910939 
  6   2.511845  -0.924519  -0.029450 
  1   1.879054  -1.202820  -0.880995 
  1   3.302586  -1.675290   0.018282 
  6  -1.262349  -1.452521  -0.934535 
  1  -0.688360  -2.355340  -1.107147 
  6  -2.490317  -1.538213  -0.141849 
  1  -2.893062  -2.516708   0.090946 
  6  -1.683814   0.957175  -1.256502 
  1  -1.035891   1.835298  -1.258793 
  1  -2.348618   1.062059  -2.124256 
  6  -2.511845   0.924519   0.029450 
  1  -3.302586   1.675290  -0.018282 
  1  -1.879054   1.202820   0.880995 

qrep pcmdoc geomview  nodis nocav g03defaults tsare=0.075 
nsfe=28
NVESolv=36  SolvMW=84.1595   Rsolv=2.815 
eps=2.22376880117094 RhoS=1.12776705486046

   -3.093267    -0.435973     0.300434     1.700000     1.050000
   -0.866740    -0.289096    -1.445431     1.700000     1.050000
   -3.986142    -0.504800     0.910939     1.200000     1.050000
    0.030308    -0.224943    -2.049778     1.200000     1.050000
    1.262349     1.452521     0.934535     1.700000     1.050000
    0.866740     0.289096     1.445431     1.700000     1.050000
    0.688360     2.355340     1.107147     1.200000     1.050000
   -0.030308     0.224943     2.049778     1.200000     1.050000
    1.683814    -0.957175     1.256502     1.700000     1.050000
    2.348618    -1.062059     2.124256     1.200000     1.050000
    1.035891    -1.835298     1.258793     1.200000     1.050000
    2.490317     1.538213     0.141849     1.700000     1.050000
    2.893062     2.516708    -0.090946     1.200000     1.050000
    3.093267     0.435973    -0.300434     1.700000     1.050000
    3.986142     0.504800    -0.910939     1.200000     1.050000
    2.511845    -0.924519    -0.029450     1.700000     1.050000
    1.879054    -1.202820    -0.880995     1.200000     1.050000
    3.302586    -1.675290     0.018282     1.200000     1.050000
   -1.262349    -1.452521    -0.934535     1.700000     1.050000
   -0.688360    -2.355340    -1.107147     1.200000     1.050000
   -2.490317    -1.538213    -0.141849     1.700000     1.050000
   -2.893062    -2.516708     0.090946     1.200000     1.050000
   -1.683814     0.957175    -1.256502     1.700000     1.050000
   -1.035891     1.835298    -1.258793     1.200000     1.050000
   -2.348618     1.062059    -2.124256     1.200000     1.050000
   -2.511845     0.924519     0.029450     1.700000     1.050000
   -3.302586     1.675290    -0.018282     1.200000     1.050000
   -1.879054     1.202820     0.880995     1.200000     1.050000

--link1--
%chk=meso-TS_91_2_xp-100.chk
%nproc=24
%mem=48GB
#p uwb97xd guess=mix def2tzvp 
# scrf=(iefpcm,solvent=Cyclohexane,read) nosym 6d 10f 

endo-2
xp-pcm for eta=3

0 1
  6  -3.093267  -0.435973   0.300434 
  6  -0.866740  -0.289096  -1.445431 
  1  -3.986142  -0.504800   0.910939 
  1   0.030308  -0.224943  -2.049778 
  6   1.262349   1.452521   0.934535 
  6   0.866740   0.289096   1.445431 
  1   0.688360   2.355340   1.107147 
  1  -0.030308   0.224943   2.049778 
  6   1.683814  -0.957175   1.256502 
  1   2.348618  -1.062059   2.124256 
  1   1.035891  -1.835298   1.258793 
  6   2.490317   1.538213   0.141849 
  1   2.893062   2.516708  -0.090946 
  6   3.093267   0.435973  -0.300434 
  1   3.986142   0.504800  -0.910939 
  6   2.511845  -0.924519  -0.029450 
  1   1.879054  -1.202820  -0.880995 
  1   3.302586  -1.675290   0.018282 
  6  -1.262349  -1.452521  -0.934535 
  1  -0.688360  -2.355340  -1.107147 
  6  -2.490317  -1.538213  -0.141849 
  1  -2.893062  -2.516708   0.090946 
  6  -1.683814   0.957175  -1.256502 
  1  -1.035891   1.835298  -1.258793 
  1  -2.348618   1.062059  -2.124256 
  6  -2.511845   0.924519   0.029450 
  1  -3.302586   1.675290  -0.018282 
  1  -1.879054   1.202820   0.880995 

qrep pcmdoc geomview  nodis nocav g03defaults tsare=0.075 
nsfe=28
NVESolv=36  SolvMW=84.1595   Rsolv=2.815 
eps=2.30480546666792 RhoS=1.28207131826017

   -3.093267    -0.435973     0.300434     1.700000     1.000000
   -0.866740    -0.289096    -1.445431     1.700000     1.000000
   -3.986142    -0.504800     0.910939     1.200000     1.000000
    0.030308    -0.224943    -2.049778     1.200000     1.000000
    1.262349     1.452521     0.934535     1.700000     1.000000
    0.866740     0.289096     1.445431     1.700000     1.000000
    0.688360     2.355340     1.107147     1.200000     1.000000
   -0.030308     0.224943     2.049778     1.200000     1.000000
    1.683814    -0.957175     1.256502     1.700000     1.000000
    2.348618    -1.062059     2.124256     1.200000     1.000000
    1.035891    -1.835298     1.258793     1.200000     1.000000
    2.490317     1.538213     0.141849     1.700000     1.000000
    2.893062     2.516708    -0.090946     1.200000     1.000000
    3.093267     0.435973    -0.300434     1.700000     1.000000
    3.986142     0.504800    -0.910939     1.200000     1.000000
    2.511845    -0.924519    -0.029450     1.700000     1.000000
    1.879054    -1.202820    -0.880995     1.200000     1.000000
    3.302586    -1.675290     0.018282     1.200000     1.000000
   -1.262349    -1.452521    -0.934535     1.700000     1.000000
   -0.688360    -2.355340    -1.107147     1.200000     1.000000
   -2.490317    -1.538213    -0.141849     1.700000     1.000000
   -2.893062    -2.516708     0.090946     1.200000     1.000000
   -1.683814     0.957175    -1.256502     1.700000     1.000000
   -1.035891     1.835298    -1.258793     1.200000     1.000000
   -2.348618     1.062059    -2.124256     1.200000     1.000000
   -2.511845     0.924519     0.029450     1.700000     1.000000
   -3.302586     1.675290    -0.018282     1.200000     1.000000
   -1.879054     1.202820     0.880995     1.200000     1.000000

--link1--
%chk=meso-TS_91_2_xp-0975.chk
%nproc=24
%mem=48GB
#p uwb97xd guess=mix def2tzvp 
# scrf=(iefpcm,solvent=Cyclohexane,read) nosym 6d 10f 

endo-2
xp-pcm for eta=3

0 1
  6  -3.093267  -0.435973   0.300434 
  6  -0.866740  -0.289096  -1.445431 
  1  -3.986142  -0.504800   0.910939 
  1   0.030308  -0.224943  -2.049778 
  6   1.262349   1.452521   0.934535 
  6   0.866740   0.289096   1.445431 
  1   0.688360   2.355340   1.107147 
  1  -0.030308   0.224943   2.049778 
  6   1.683814  -0.957175   1.256502 
  1   2.348618  -1.062059   2.124256 
  1   1.035891  -1.835298   1.258793 
  6   2.490317   1.538213   0.141849 
  1   2.893062   2.516708  -0.090946 
  6   3.093267   0.435973  -0.300434 
  1   3.986142   0.504800  -0.910939 
  6   2.511845  -0.924519  -0.029450 
  1   1.879054  -1.202820  -0.880995 
  1   3.302586  -1.675290   0.018282 
  6  -1.262349  -1.452521  -0.934535 
  1  -0.688360  -2.355340  -1.107147 
  6  -2.490317  -1.538213  -0.141849 
  1  -2.893062  -2.516708   0.090946 
  6  -1.683814   0.957175  -1.256502 
  1  -1.035891   1.835298  -1.258793 
  1  -2.348618   1.062059  -2.124256 
  6  -2.511845   0.924519   0.029450 
  1  -3.302586   1.675290  -0.018282 
  1  -1.879054   1.202820   0.880995 

qrep pcmdoc geomview  nodis nocav g03defaults tsare=0.075 
nsfe=28
NVESolv=36  SolvMW=84.1595   Rsolv=2.815 
eps=2.34745273026226 RhoS=1.36724935387803

   -3.093267    -0.435973     0.300434     1.700000     0.975000
   -0.866740    -0.289096    -1.445431     1.700000     0.975000
   -3.986142    -0.504800     0.910939     1.200000     0.975000
    0.030308    -0.224943    -2.049778     1.200000     0.975000
    1.262349     1.452521     0.934535     1.700000     0.975000
    0.866740     0.289096     1.445431     1.700000     0.975000
    0.688360     2.355340     1.107147     1.200000     0.975000
   -0.030308     0.224943     2.049778     1.200000     0.975000
    1.683814    -0.957175     1.256502     1.700000     0.975000
    2.348618    -1.062059     2.124256     1.200000     0.975000
    1.035891    -1.835298     1.258793     1.200000     0.975000
    2.490317     1.538213     0.141849     1.700000     0.975000
    2.893062     2.516708    -0.090946     1.200000     0.975000
    3.093267     0.435973    -0.300434     1.700000     0.975000
    3.986142     0.504800    -0.910939     1.200000     0.975000
    2.511845    -0.924519    -0.029450     1.700000     0.975000
    1.879054    -1.202820    -0.880995     1.200000     0.975000
    3.302586    -1.675290     0.018282     1.200000     0.975000
   -1.262349    -1.452521    -0.934535     1.700000     0.975000
   -0.688360    -2.355340    -1.107147     1.200000     0.975000
   -2.490317    -1.538213    -0.141849     1.700000     0.975000
   -2.893062    -2.516708     0.090946     1.200000     0.975000
   -1.683814     0.957175    -1.256502     1.700000     0.975000
   -1.035891     1.835298    -1.258793     1.200000     0.975000
   -2.348618     1.062059    -2.124256     1.200000     0.975000
   -2.511845     0.924519     0.029450     1.700000     0.975000
   -3.302586     1.675290    -0.018282     1.200000     0.975000
   -1.879054     1.202820     0.880995     1.200000     0.975000

--link1--
%chk=meso-TS_91_2_xp-095.chk
%nproc=24
%mem=48GB
#p uwb97xd guess=mix def2tzvp 
# scrf=(iefpcm,solvent=Cyclohexane,read) nosym 6d 10f 

endo-2
xp-pcm for eta=3

0 1
  6  -3.093267  -0.435973   0.300434 
  6  -0.866740  -0.289096  -1.445431 
  1  -3.986142  -0.504800   0.910939 
  1   0.030308  -0.224943  -2.049778 
  6   1.262349   1.452521   0.934535 
  6   0.866740   0.289096   1.445431 
  1   0.688360   2.355340   1.107147 
  1  -0.030308   0.224943   2.049778 
  6   1.683814  -0.957175   1.256502 
  1   2.348618  -1.062059   2.124256 
  1   1.035891  -1.835298   1.258793 
  6   2.490317   1.538213   0.141849 
  1   2.893062   2.516708  -0.090946 
  6   3.093267   0.435973  -0.300434 
  1   3.986142   0.504800  -0.910939 
  6   2.511845  -0.924519  -0.029450 
  1   1.879054  -1.202820  -0.880995 
  1   3.302586  -1.675290   0.018282 
  6  -1.262349  -1.452521  -0.934535 
  1  -0.688360  -2.355340  -1.107147 
  6  -2.490317  -1.538213  -0.141849 
  1  -2.893062  -2.516708   0.090946 
  6  -1.683814   0.957175  -1.256502 
  1  -1.035891   1.835298  -1.258793 
  1  -2.348618   1.062059  -2.124256 
  6  -2.511845   0.924519   0.029450 
  1  -3.302586   1.675290  -0.018282 
  1  -1.879054   1.202820   0.880995 

qrep pcmdoc geomview  nodis nocav g03defaults tsare=0.075 
nsfe=28
NVESolv=36  SolvMW=84.1595   Rsolv=2.815 
eps=2.39339884323873 RhoS=1.4620813611373

   -3.093267    -0.435973     0.300434     1.700000     0.950000
   -0.866740    -0.289096    -1.445431     1.700000     0.950000
   -3.986142    -0.504800     0.910939     1.200000     0.950000
    0.030308    -0.224943    -2.049778     1.200000     0.950000
    1.262349     1.452521     0.934535     1.700000     0.950000
    0.866740     0.289096     1.445431     1.700000     0.950000
    0.688360     2.355340     1.107147     1.200000     0.950000
   -0.030308     0.224943     2.049778     1.200000     0.950000
    1.683814    -0.957175     1.256502     1.700000     0.950000
    2.348618    -1.062059     2.124256     1.200000     0.950000
    1.035891    -1.835298     1.258793     1.200000     0.950000
    2.490317     1.538213     0.141849     1.700000     0.950000
    2.893062     2.516708    -0.090946     1.200000     0.950000
    3.093267     0.435973    -0.300434     1.700000     0.950000
    3.986142     0.504800    -0.910939     1.200000     0.950000
    2.511845    -0.924519    -0.029450     1.700000     0.950000
    1.879054    -1.202820    -0.880995     1.200000     0.950000
    3.302586    -1.675290     0.018282     1.200000     0.950000
   -1.262349    -1.452521    -0.934535     1.700000     0.950000
   -0.688360    -2.355340    -1.107147     1.200000     0.950000
   -2.490317    -1.538213    -0.141849     1.700000     0.950000
   -2.893062    -2.516708     0.090946     1.200000     0.950000
   -1.683814     0.957175    -1.256502     1.700000     0.950000
   -1.035891     1.835298    -1.258793     1.200000     0.950000
   -2.348618     1.062059    -2.124256     1.200000     0.950000
   -2.511845     0.924519     0.029450     1.700000     0.950000
   -3.302586     1.675290    -0.018282     1.200000     0.950000
   -1.879054     1.202820     0.880995     1.200000     0.950000

