%nproc=24
%mem=48GB
#p uwb97xd guess=mix def2tzvp 

endo-2

0 1
  6  -3.125686  -0.440174   0.252527 
  6  -0.663985  -0.234797  -1.133122 
  1  -4.083841  -0.542782   0.748768 
  1   0.303877  -0.143752  -1.608438 
  6   1.124997   1.417561   0.737485 
  6   0.663985   0.234797   1.133122 
  1   0.532399   2.314956   0.865605 
  1  -0.303877   0.143752   1.608438 
  6   1.513217  -1.000485   1.052468 
  1   2.002762  -1.109176   2.028540 
  1   0.889096  -1.884811   0.931435 
  6   2.437856   1.523799   0.105085 
  1   2.842643   2.510648  -0.085396 
  6   3.125686   0.440174  -0.252527 
  1   4.083841   0.542782  -0.748768 
  6   2.585395  -0.947967  -0.041782 
  1   2.186884  -1.316602  -0.995073 
  1   3.398728  -1.629488   0.215560 
  6  -1.124997  -1.417561  -0.737485 
  1  -0.532399  -2.314956  -0.865605 
  6  -2.437856  -1.523799  -0.105085 
  1  -2.842643  -2.510648   0.085396 
  6  -1.513217   1.000485  -1.052468 
  1  -0.889096   1.884811  -0.931435 
  1  -2.002762   1.109176  -2.028540 
  6  -2.585395   0.947967   0.041782 
  1  -3.398728   1.629487  -0.215560 
  1  -2.186884   1.316602   0.995073 

