%nproc=24
%mem=48GB
#p uwb97xd guess=mix def2tzvp 

endo-2

0 1
  6  -3.120314  -0.437379   0.247718 
  6  -0.587163  -0.209921  -0.994774 
  1  -4.084231  -0.549266   0.730477 
  1   0.374362  -0.119886  -1.479970 
  6   1.093772   1.407854   0.697073 
  6   0.587163   0.209921   0.994774 
  1   0.513948   2.309414   0.848149 
  1  -0.374362   0.119886   1.479970 
  6   1.474895  -1.000011   1.000014 
  1   1.933584  -1.014574   1.996585 
  1   0.899152  -1.920125   0.916881 
  6   2.422263   1.516494   0.110756 
  1   2.830769   2.505177  -0.061872 
  6   3.120314   0.437379  -0.247718 
  1   4.084231   0.549266  -0.730477 
  6   2.591139  -0.956556  -0.045823 
  1   2.246903  -1.351551  -1.009681 
  1   3.400631  -1.620258   0.265409 
  6  -1.093772  -1.407854  -0.697073 
  1  -0.513948  -2.309414  -0.848149 
  6  -2.422263  -1.516494  -0.110756 
  1  -2.830769  -2.505177   0.061872 
  6  -1.474895   1.000011  -1.000014 
  1  -0.899152   1.920125  -0.916881 
  1  -1.933584   1.014574  -1.996585 
  6  -2.591139   0.956556   0.045823 
  1  -3.400631   1.620258  -0.265410 
  1  -2.246903   1.351551   1.009681 

