%nproc=24
%mem=48GB
#p uwb97xd guess=mix def2tzvp 

endo-2

0 1
  6  -3.126978  -0.441346   0.266603 
  6  -0.746572  -0.254649  -1.259404 
  1  -4.065332  -0.531026   0.801634 
  1   0.200090  -0.173898  -1.779363 
  6   1.177945   1.428065   0.806446 
  6   0.746572   0.254649   1.259404 
  1   0.585669   2.324717   0.945004 
  1  -0.200090   0.173898   1.779363 
  6   1.577883  -0.989014   1.131049 
  1   2.122460  -1.121412   2.074730 
  1   0.930201  -1.860830   1.031106 
  6   2.462092   1.531219   0.112505 
  1   2.861411   2.516147  -0.098158 
  6   3.126978   0.441346  -0.266603 
  1   4.065332   0.531026  -0.801634 
  6   2.571845  -0.937519  -0.034126 
  1   2.086166  -1.272033  -0.959066 
  1   3.383629  -1.645359   0.144004 
  6  -1.177945  -1.428065  -0.806446 
  1  -0.585669  -2.324717  -0.945004 
  6  -2.462092  -1.531219  -0.112505 
  1  -2.861411  -2.516147   0.098158 
  6  -1.577883   0.989014  -1.131049 
  1  -0.930201   1.860830  -1.031106 
  1  -2.122460   1.121412  -2.074730 
  6  -2.571845   0.937519   0.034126 
  1  -3.383629   1.645359  -0.144004 
  1  -2.086166   1.272033   0.959066 

