%nproc=24
%mem=48GB
#p uwb97xd guess=mix def2tzvp 

endo-2

0 1
  6  -3.127160  -0.441387   0.265808 
  6  -0.742781  -0.253682  -1.253790 
  1  -4.066590  -0.531634   0.798854 
  1   0.204971  -0.172502  -1.771631 
  6   1.175378   1.427467   0.803019 
  6   0.742781   0.253682   1.253790 
  1   0.582914   2.324068   0.940997 
  1  -0.204971   0.172502   1.771631 
  6   1.574588  -0.989808   1.127258 
  1   2.116105  -1.122154   2.072691 
  1   0.927535  -1.861790   1.025285 
  6   2.460878   1.530950   0.111768 
  1   2.860246   2.516008  -0.098202 
  6   3.127160   0.441387  -0.265808 
  1   4.066590   0.531634  -0.798854 
  6   2.572730  -0.937949  -0.034385 
  1   2.091291  -1.273998  -0.960989 
  1   3.384763  -1.644565   0.147485 
  6  -1.175378  -1.427467  -0.803019 
  1  -0.582914  -2.324068  -0.940997 
  6  -2.460878  -1.530950  -0.111768 
  1  -2.860246  -2.516008   0.098202 
  6  -1.574588   0.989808  -1.127258 
  1  -0.927535   1.861790  -1.025285 
  1  -2.116105   1.122154  -2.072691 
  6  -2.572730   0.937949   0.034385 
  1  -3.384763   1.644565  -0.147485 
  1  -2.091291   1.273998   0.960989 

