%nproc=24
%mem=48GB
#p uwb97xd guess=mix def2tzvp 

endo-2

0 1
  6  -3.118578  -0.436876   0.247024 
  6  -0.555477  -0.196368  -0.932206 
  1  -4.082851  -0.549917   0.728725 
  1   0.380936  -0.117306  -1.466881 
  6   1.090379   1.404463   0.689379 
  6   0.555477   0.196368   0.932206 
  1   0.521599   2.308823   0.864348 
  1  -0.380936   0.117306   1.466881 
  6   1.466810  -0.999509   0.989932 
  1   1.911942  -0.970218   1.991724 
  1   0.912395  -1.934620   0.924846 
  6   2.418004   1.516122   0.112667 
  1   2.827281   2.505496  -0.054615 
  6   3.118578   0.436876  -0.247024 
  1   4.082851   0.549917  -0.728725 
  6   2.591691  -0.957992  -0.044788 
  1   2.252888  -1.355863  -1.009385 
  1   3.400558  -1.620027   0.271880 
  6  -1.090379  -1.404463  -0.689379 
  1  -0.521599  -2.308823  -0.864348 
  6  -2.418004  -1.516122  -0.112667 
  1  -2.827281  -2.505496   0.054615 
  6  -1.466810   0.999509  -0.989932 
  1  -0.912395   1.934620  -0.924846 
  1  -1.911942   0.970219  -1.991724 
  6  -2.591691   0.957992   0.044788 
  1  -3.400558   1.620027  -0.271880 
  1  -2.252888   1.355863   1.009385 

