%nproc=24
%mem=48GB
#p uwb97xd guess=mix def2tzvp 

endo-2

0 1
  6  -3.135881  -0.424440   0.227125 
  6  -0.404420  -0.126125  -0.660410 
  1  -4.128699  -0.544282   0.642794 
  1   0.321262  -0.128471  -1.478327 
  6   1.106743   1.444789   0.610952 
  6   0.404420   0.126125   0.660410 
  1   0.571662   2.343475   0.890570 
  1  -0.321262   0.128471   1.478327 
  6   1.427927  -0.982793   0.934845 
  1   1.829820  -0.829599   1.939721 
  1   0.941946  -1.959508   0.932902 
  6   2.405807   1.534486   0.143678 
  1   2.864813   2.513427   0.057827 
  6   3.135881   0.424440  -0.227125 
  1   4.128699   0.544282  -0.642794 
  6   2.586443  -0.956776  -0.062009 
  1   2.258750  -1.342609  -1.036795 
  1   3.377033  -1.636868   0.266307 
  6  -1.106743  -1.444789  -0.610952 
  1  -0.571662  -2.343475  -0.890570 
  6  -2.405807  -1.534486  -0.143678 
  1  -2.864813  -2.513427  -0.057827 
  6  -1.427927   0.982793  -0.934845 
  1  -0.941946   1.959508  -0.932902 
  1  -1.829820   0.829599  -1.939721 
  6  -2.586443   0.956776   0.062009 
  1  -3.377033   1.636868  -0.266307 
  1  -2.258750   1.342609   1.036795 

