%nproc=24
%mem=48GB
#p uwb97xd guess=mix def2tzvp 

endo-2

0 1
  6  -3.121693  -0.437935   0.248475 
  6  -0.608894  -0.218266  -1.036985 
  1  -4.085054  -0.548156   0.732789 
  1   0.360308  -0.124712  -1.506593 
  6   1.099596   1.410984   0.705395 
  6   0.608894   0.218266   1.036985 
  1   0.514105   2.311092   0.843328 
  1  -0.360308   0.124712   1.506593 
  6   1.483411  -1.000688   1.011498 
  1   1.950917  -1.047718   2.003099 
  1   0.891930  -1.909281   0.914020 
  6   2.425900   1.517947   0.109041 
  1   2.834101   2.505963  -0.067907 
  6   3.121693   0.437935  -0.248475 
  1   4.085054   0.548156  -0.732789 
  6   2.590248  -0.954860  -0.045775 
  1   2.235992  -1.344838  -1.008028 
  1   3.400959  -1.621706   0.255233 
  6  -1.099596  -1.410984  -0.705395 
  1  -0.514105  -2.311092  -0.843328 
  6  -2.425900  -1.517947  -0.109041 
  1  -2.834101  -2.505963   0.067907 
  6  -1.483411   1.000688  -1.011498 
  1  -0.891929   1.909281  -0.914020 
  1  -1.950917   1.047718  -2.003099 
  6  -2.590248   0.954860   0.045775 
  1  -3.400959   1.621706  -0.255234 
  1  -2.235992   1.344838   1.008028 

