%nproc=24
%mem=48GB
#p uwb97xd guess=mix def2tzvp 

endo-2

0 1
  6  -3.127505  -0.441286   0.257598 
  6  -0.700497  -0.243654  -1.190438 
  1  -4.078278  -0.537966   0.768991 
  1   0.259210  -0.157435  -1.684041 
  6   1.147171   1.421692   0.765782 
  6   0.700497   0.243654   1.190438 
  1   0.553793   2.318327   0.897736 
  1  -0.259210   0.157435   1.684041 
  6   1.538919  -0.997263   1.085360 
  1   2.048519  -1.125443   2.048769 
  1   0.900402  -1.872270   0.964773 
  6   2.447749   1.527574   0.105774 
  1   2.849186   2.513776  -0.094738 
  6   3.127505   0.441286  -0.257598 
  1   4.078278   0.537966  -0.768991 
  6   2.580558  -0.942957  -0.037962 
  1   2.145305  -1.295945  -0.981026 
  1   3.394017  -1.636155   0.185071 
  6  -1.147171  -1.421692  -0.765782 
  1  -0.553793  -2.318327  -0.897736 
  6  -2.447749  -1.527574  -0.105774 
  1  -2.849186  -2.513776   0.094738 
  6  -1.538919   0.997263  -1.085360 
  1  -0.900402   1.872270  -0.964773 
  1  -2.048519   1.125443  -2.048769 
  6  -2.580558   0.942957   0.037962 
  1  -3.394017   1.636155  -0.185071 
  1  -2.145305   1.295945   0.981026 

