%chk=meso-TS_4_2_xp-12.chk
%nproc=24
%mem=48GB
#p uwb97xd guess=mix def2tzvp 
# scrf=(iefpcm,solvent=Cyclohexane,read) nosym 6d 10f 

endo-2
xp-pcm for eta=3

0 1
  6  -3.118154  -0.434970   0.246911 
  6  -0.525244  -0.179089  -0.881108 
  1  -4.082876  -0.549545   0.727275 
  1   0.369421  -0.116466  -1.488305 
  6   1.095749   1.409502   0.684953 
  6   0.525244   0.179089   0.881108 
  1   0.534376   2.315268   0.877539 
  1  -0.369421   0.116466   1.488305 
  6   1.464053  -0.999907   0.987811 
  1   1.902396  -0.948136   1.990906 
  1   0.922907  -1.944294   0.931362 
  6   2.412752   1.518768   0.114990 
  1   2.825512   2.507319  -0.049863 
  6   3.118154   0.434970  -0.246911 
  1   4.082876   0.549545  -0.727275 
  6   2.591960  -0.958481  -0.043904 
  1   2.251216  -1.356631  -1.007828 
  1   3.400803  -1.621376   0.271761 
  6  -1.095749  -1.409502  -0.684954 
  1  -0.534376  -2.315268  -0.877539 
  6  -2.412752  -1.518768  -0.114990 
  1  -2.825512  -2.507319   0.049863 
  6  -1.464053   0.999907  -0.987811 
  1  -0.922907   1.944294  -0.931362 
  1  -1.902396   0.948136  -1.990906 
  6  -2.591960   0.958481   0.043904 
  1  -3.400803   1.621376  -0.271761 
  1  -2.251216   1.356631   1.007828 

qrep pcmdoc geomview  nodis nocav g03defaults tsare=0.075 
nsfe=28
NVESolv=36  SolvMW=84.1595   Rsolv=2.815 
eps=2.0165 RhoS=0.778099999999998

   -3.118154    -0.434970     0.246911     1.700000     1.200000
   -0.525244    -0.179089    -0.881108     1.700000     1.200000
   -4.082876    -0.549545     0.727275     1.200000     1.200000
    0.369421    -0.116466    -1.488305     1.200000     1.200000
    1.095749     1.409502     0.684953     1.700000     1.200000
    0.525244     0.179089     0.881108     1.700000     1.200000
    0.534376     2.315268     0.877539     1.200000     1.200000
   -0.369421     0.116466     1.488305     1.200000     1.200000
    1.464053    -0.999907     0.987811     1.700000     1.200000
    1.902396    -0.948136     1.990906     1.200000     1.200000
    0.922907    -1.944294     0.931362     1.200000     1.200000
    2.412752     1.518768     0.114990     1.700000     1.200000
    2.825512     2.507319    -0.049863     1.200000     1.200000
    3.118154     0.434970    -0.246911     1.700000     1.200000
    4.082876     0.549545    -0.727275     1.200000     1.200000
    2.591960    -0.958481    -0.043904     1.700000     1.200000
    2.251216    -1.356631    -1.007828     1.200000     1.200000
    3.400803    -1.621376     0.271761     1.200000     1.200000
   -1.095749    -1.409502    -0.684954     1.700000     1.200000
   -0.534376    -2.315268    -0.877539     1.200000     1.200000
   -2.412752    -1.518768    -0.114990     1.700000     1.200000
   -2.825512    -2.507319     0.049863     1.200000     1.200000
   -1.464053     0.999907    -0.987811     1.700000     1.200000
   -0.922907     1.944294    -0.931362     1.200000     1.200000
   -1.902396     0.948136    -1.990906     1.200000     1.200000
   -2.591960     0.958481     0.043904     1.700000     1.200000
   -3.400803     1.621376    -0.271761     1.200000     1.200000
   -2.251216     1.356631     1.007828     1.200000     1.200000

--link1--
%chk=meso-TS_4_2_xp-115.chk
%nproc=24
%mem=48GB
#p uwb97xd guess=mix def2tzvp 
# scrf=(iefpcm,solvent=Cyclohexane,read) nosym 6d 10f 

endo-2
xp-pcm for eta=3

0 1
  6  -3.118154  -0.434970   0.246911 
  6  -0.525244  -0.179089  -0.881108 
  1  -4.082876  -0.549545   0.727275 
  1   0.369421  -0.116466  -1.488305 
  6   1.095749   1.409502   0.684953 
  6   0.525244   0.179089   0.881108 
  1   0.534376   2.315268   0.877539 
  1  -0.369421   0.116466   1.488305 
  6   1.464053  -0.999907   0.987811 
  1   1.902396  -0.948136   1.990906 
  1   0.922907  -1.944294   0.931362 
  6   2.412752   1.518768   0.114990 
  1   2.825512   2.507319  -0.049863 
  6   3.118154   0.434970  -0.246911 
  1   4.082876   0.549545  -0.727275 
  6   2.591960  -0.958481  -0.043904 
  1   2.251216  -1.356631  -1.007828 
  1   3.400803  -1.621376   0.271761 
  6  -1.095749  -1.409502  -0.684954 
  1  -0.534376  -2.315268  -0.877539 
  6  -2.412752  -1.518768  -0.114990 
  1  -2.825512  -2.507319   0.049863 
  6  -1.464053   0.999907  -0.987811 
  1  -0.922907   1.944294  -0.931362 
  1  -1.902396   0.948136  -1.990906 
  6  -2.591960   0.958481   0.043904 
  1  -3.400803   1.621376  -0.271761 
  1  -2.251216   1.356631   1.007828 

qrep pcmdoc geomview  nodis nocav g03defaults tsare=0.075 
nsfe=28
NVESolv=36  SolvMW=84.1595   Rsolv=2.815 
eps=2.08074995319988 RhoS=0.87957140140931

   -3.118154    -0.434970     0.246911     1.700000     1.150000
   -0.525244    -0.179089    -0.881108     1.700000     1.150000
   -4.082876    -0.549545     0.727275     1.200000     1.150000
    0.369421    -0.116466    -1.488305     1.200000     1.150000
    1.095749     1.409502     0.684953     1.700000     1.150000
    0.525244     0.179089     0.881108     1.700000     1.150000
    0.534376     2.315268     0.877539     1.200000     1.150000
   -0.369421     0.116466     1.488305     1.200000     1.150000
    1.464053    -0.999907     0.987811     1.700000     1.150000
    1.902396    -0.948136     1.990906     1.200000     1.150000
    0.922907    -1.944294     0.931362     1.200000     1.150000
    2.412752     1.518768     0.114990     1.700000     1.150000
    2.825512     2.507319    -0.049863     1.200000     1.150000
    3.118154     0.434970    -0.246911     1.700000     1.150000
    4.082876     0.549545    -0.727275     1.200000     1.150000
    2.591960    -0.958481    -0.043904     1.700000     1.150000
    2.251216    -1.356631    -1.007828     1.200000     1.150000
    3.400803    -1.621376     0.271761     1.200000     1.150000
   -1.095749    -1.409502    -0.684954     1.700000     1.150000
   -0.534376    -2.315268    -0.877539     1.200000     1.150000
   -2.412752    -1.518768    -0.114990     1.700000     1.150000
   -2.825512    -2.507319     0.049863     1.200000     1.150000
   -1.464053     0.999907    -0.987811     1.700000     1.150000
   -0.922907     1.944294    -0.931362     1.200000     1.150000
   -1.902396     0.948136    -1.990906     1.200000     1.150000
   -2.591960     0.958481     0.043904     1.700000     1.150000
   -3.400803     1.621376    -0.271761     1.200000     1.150000
   -2.251216     1.356631     1.007828     1.200000     1.150000

--link1--
%chk=meso-TS_4_2_xp-110.chk
%nproc=24
%mem=48GB
#p uwb97xd guess=mix def2tzvp 
# scrf=(iefpcm,solvent=Cyclohexane,read) nosym 6d 10f 

endo-2
xp-pcm for eta=3

0 1
  6  -3.118154  -0.434970   0.246911 
  6  -0.525244  -0.179089  -0.881108 
  1  -4.082876  -0.549545   0.727275 
  1   0.369421  -0.116466  -1.488305 
  6   1.095749   1.409502   0.684953 
  6   0.525244   0.179089   0.881108 
  1   0.534376   2.315268   0.877539 
  1  -0.369421   0.116466   1.488305 
  6   1.464053  -0.999907   0.987811 
  1   1.902396  -0.948136   1.990906 
  1   0.922907  -1.944294   0.931362 
  6   2.412752   1.518768   0.114990 
  1   2.825512   2.507319  -0.049863 
  6   3.118154   0.434970  -0.246911 
  1   4.082876   0.549545  -0.727275 
  6   2.591960  -0.958481  -0.043904 
  1   2.251216  -1.356631  -1.007828 
  1   3.400803  -1.621376   0.271761 
  6  -1.095749  -1.409502  -0.684954 
  1  -0.534376  -2.315268  -0.877539 
  6  -2.412752  -1.518768  -0.114990 
  1  -2.825512  -2.507319   0.049863 
  6  -1.464053   0.999907  -0.987811 
  1  -0.922907   1.944294  -0.931362 
  1  -1.902396   0.948136  -1.990906 
  6  -2.591960   0.958481   0.043904 
  1  -3.400803   1.621376  -0.271761 
  1  -2.251216   1.356631   1.007828 

qrep pcmdoc geomview  nodis nocav g03defaults tsare=0.075 
nsfe=28
NVESolv=36  SolvMW=84.1595   Rsolv=2.815 
eps=2.14797859684703 RhoS=0.992403372535132

   -3.118154    -0.434970     0.246911     1.700000     1.100000
   -0.525244    -0.179089    -0.881108     1.700000     1.100000
   -4.082876    -0.549545     0.727275     1.200000     1.100000
    0.369421    -0.116466    -1.488305     1.200000     1.100000
    1.095749     1.409502     0.684953     1.700000     1.100000
    0.525244     0.179089     0.881108     1.700000     1.100000
    0.534376     2.315268     0.877539     1.200000     1.100000
   -0.369421     0.116466     1.488305     1.200000     1.100000
    1.464053    -0.999907     0.987811     1.700000     1.100000
    1.902396    -0.948136     1.990906     1.200000     1.100000
    0.922907    -1.944294     0.931362     1.200000     1.100000
    2.412752     1.518768     0.114990     1.700000     1.100000
    2.825512     2.507319    -0.049863     1.200000     1.100000
    3.118154     0.434970    -0.246911     1.700000     1.100000
    4.082876     0.549545    -0.727275     1.200000     1.100000
    2.591960    -0.958481    -0.043904     1.700000     1.100000
    2.251216    -1.356631    -1.007828     1.200000     1.100000
    3.400803    -1.621376     0.271761     1.200000     1.100000
   -1.095749    -1.409502    -0.684954     1.700000     1.100000
   -0.534376    -2.315268    -0.877539     1.200000     1.100000
   -2.412752    -1.518768    -0.114990     1.700000     1.100000
   -2.825512    -2.507319     0.049863     1.200000     1.100000
   -1.464053     0.999907    -0.987811     1.700000     1.100000
   -0.922907     1.944294    -0.931362     1.200000     1.100000
   -1.902396     0.948136    -1.990906     1.200000     1.100000
   -2.591960     0.958481     0.043904     1.700000     1.100000
   -3.400803     1.621376    -0.271761     1.200000     1.100000
   -2.251216     1.356631     1.007828     1.200000     1.100000

--link1--
%chk=meso-TS_4_2_xp-105.chk
%nproc=24
%mem=48GB
#p uwb97xd guess=mix def2tzvp 
# scrf=(iefpcm,solvent=Cyclohexane,read) nosym 6d 10f 

endo-2
xp-pcm for eta=3

0 1
  6  -3.118154  -0.434970   0.246911 
  6  -0.525244  -0.179089  -0.881108 
  1  -4.082876  -0.549545   0.727275 
  1   0.369421  -0.116466  -1.488305 
  6   1.095749   1.409502   0.684953 
  6   0.525244   0.179089   0.881108 
  1   0.534376   2.315268   0.877539 
  1  -0.369421   0.116466   1.488305 
  6   1.464053  -0.999907   0.987811 
  1   1.902396  -0.948136   1.990906 
  1   0.922907  -1.944294   0.931362 
  6   2.412752   1.518768   0.114990 
  1   2.825512   2.507319  -0.049863 
  6   3.118154   0.434970  -0.246911 
  1   4.082876   0.549545  -0.727275 
  6   2.591960  -0.958481  -0.043904 
  1   2.251216  -1.356631  -1.007828 
  1   3.400803  -1.621376   0.271761 
  6  -1.095749  -1.409502  -0.684954 
  1  -0.534376  -2.315268  -0.877539 
  6  -2.412752  -1.518768  -0.114990 
  1  -2.825512  -2.507319   0.049863 
  6  -1.464053   0.999907  -0.987811 
  1  -0.922907   1.944294  -0.931362 
  1  -1.902396   0.948136  -1.990906 
  6  -2.591960   0.958481   0.043904 
  1  -3.400803   1.621376  -0.271761 
  1  -2.251216   1.356631   1.007828 

qrep pcmdoc geomview  nodis nocav g03defaults tsare=0.075 
nsfe=28
NVESolv=36  SolvMW=84.1595   Rsolv=2.815 
eps=2.22376880117094 RhoS=1.12776705486046

   -3.118154    -0.434970     0.246911     1.700000     1.050000
   -0.525244    -0.179089    -0.881108     1.700000     1.050000
   -4.082876    -0.549545     0.727275     1.200000     1.050000
    0.369421    -0.116466    -1.488305     1.200000     1.050000
    1.095749     1.409502     0.684953     1.700000     1.050000
    0.525244     0.179089     0.881108     1.700000     1.050000
    0.534376     2.315268     0.877539     1.200000     1.050000
   -0.369421     0.116466     1.488305     1.200000     1.050000
    1.464053    -0.999907     0.987811     1.700000     1.050000
    1.902396    -0.948136     1.990906     1.200000     1.050000
    0.922907    -1.944294     0.931362     1.200000     1.050000
    2.412752     1.518768     0.114990     1.700000     1.050000
    2.825512     2.507319    -0.049863     1.200000     1.050000
    3.118154     0.434970    -0.246911     1.700000     1.050000
    4.082876     0.549545    -0.727275     1.200000     1.050000
    2.591960    -0.958481    -0.043904     1.700000     1.050000
    2.251216    -1.356631    -1.007828     1.200000     1.050000
    3.400803    -1.621376     0.271761     1.200000     1.050000
   -1.095749    -1.409502    -0.684954     1.700000     1.050000
   -0.534376    -2.315268    -0.877539     1.200000     1.050000
   -2.412752    -1.518768    -0.114990     1.700000     1.050000
   -2.825512    -2.507319     0.049863     1.200000     1.050000
   -1.464053     0.999907    -0.987811     1.700000     1.050000
   -0.922907     1.944294    -0.931362     1.200000     1.050000
   -1.902396     0.948136    -1.990906     1.200000     1.050000
   -2.591960     0.958481     0.043904     1.700000     1.050000
   -3.400803     1.621376    -0.271761     1.200000     1.050000
   -2.251216     1.356631     1.007828     1.200000     1.050000

--link1--
%chk=meso-TS_4_2_xp-100.chk
%nproc=24
%mem=48GB
#p uwb97xd guess=mix def2tzvp 
# scrf=(iefpcm,solvent=Cyclohexane,read) nosym 6d 10f 

endo-2
xp-pcm for eta=3

0 1
  6  -3.118154  -0.434970   0.246911 
  6  -0.525244  -0.179089  -0.881108 
  1  -4.082876  -0.549545   0.727275 
  1   0.369421  -0.116466  -1.488305 
  6   1.095749   1.409502   0.684953 
  6   0.525244   0.179089   0.881108 
  1   0.534376   2.315268   0.877539 
  1  -0.369421   0.116466   1.488305 
  6   1.464053  -0.999907   0.987811 
  1   1.902396  -0.948136   1.990906 
  1   0.922907  -1.944294   0.931362 
  6   2.412752   1.518768   0.114990 
  1   2.825512   2.507319  -0.049863 
  6   3.118154   0.434970  -0.246911 
  1   4.082876   0.549545  -0.727275 
  6   2.591960  -0.958481  -0.043904 
  1   2.251216  -1.356631  -1.007828 
  1   3.400803  -1.621376   0.271761 
  6  -1.095749  -1.409502  -0.684954 
  1  -0.534376  -2.315268  -0.877539 
  6  -2.412752  -1.518768  -0.114990 
  1  -2.825512  -2.507319   0.049863 
  6  -1.464053   0.999907  -0.987811 
  1  -0.922907   1.944294  -0.931362 
  1  -1.902396   0.948136  -1.990906 
  6  -2.591960   0.958481   0.043904 
  1  -3.400803   1.621376  -0.271761 
  1  -2.251216   1.356631   1.007828 

qrep pcmdoc geomview  nodis nocav g03defaults tsare=0.075 
nsfe=28
NVESolv=36  SolvMW=84.1595   Rsolv=2.815 
eps=2.30480546666792 RhoS=1.28207131826017

   -3.118154    -0.434970     0.246911     1.700000     1.000000
   -0.525244    -0.179089    -0.881108     1.700000     1.000000
   -4.082876    -0.549545     0.727275     1.200000     1.000000
    0.369421    -0.116466    -1.488305     1.200000     1.000000
    1.095749     1.409502     0.684953     1.700000     1.000000
    0.525244     0.179089     0.881108     1.700000     1.000000
    0.534376     2.315268     0.877539     1.200000     1.000000
   -0.369421     0.116466     1.488305     1.200000     1.000000
    1.464053    -0.999907     0.987811     1.700000     1.000000
    1.902396    -0.948136     1.990906     1.200000     1.000000
    0.922907    -1.944294     0.931362     1.200000     1.000000
    2.412752     1.518768     0.114990     1.700000     1.000000
    2.825512     2.507319    -0.049863     1.200000     1.000000
    3.118154     0.434970    -0.246911     1.700000     1.000000
    4.082876     0.549545    -0.727275     1.200000     1.000000
    2.591960    -0.958481    -0.043904     1.700000     1.000000
    2.251216    -1.356631    -1.007828     1.200000     1.000000
    3.400803    -1.621376     0.271761     1.200000     1.000000
   -1.095749    -1.409502    -0.684954     1.700000     1.000000
   -0.534376    -2.315268    -0.877539     1.200000     1.000000
   -2.412752    -1.518768    -0.114990     1.700000     1.000000
   -2.825512    -2.507319     0.049863     1.200000     1.000000
   -1.464053     0.999907    -0.987811     1.700000     1.000000
   -0.922907     1.944294    -0.931362     1.200000     1.000000
   -1.902396     0.948136    -1.990906     1.200000     1.000000
   -2.591960     0.958481     0.043904     1.700000     1.000000
   -3.400803     1.621376    -0.271761     1.200000     1.000000
   -2.251216     1.356631     1.007828     1.200000     1.000000

--link1--
%chk=meso-TS_4_2_xp-0975.chk
%nproc=24
%mem=48GB
#p uwb97xd guess=mix def2tzvp 
# scrf=(iefpcm,solvent=Cyclohexane,read) nosym 6d 10f 

endo-2
xp-pcm for eta=3

0 1
  6  -3.118154  -0.434970   0.246911 
  6  -0.525244  -0.179089  -0.881108 
  1  -4.082876  -0.549545   0.727275 
  1   0.369421  -0.116466  -1.488305 
  6   1.095749   1.409502   0.684953 
  6   0.525244   0.179089   0.881108 
  1   0.534376   2.315268   0.877539 
  1  -0.369421   0.116466   1.488305 
  6   1.464053  -0.999907   0.987811 
  1   1.902396  -0.948136   1.990906 
  1   0.922907  -1.944294   0.931362 
  6   2.412752   1.518768   0.114990 
  1   2.825512   2.507319  -0.049863 
  6   3.118154   0.434970  -0.246911 
  1   4.082876   0.549545  -0.727275 
  6   2.591960  -0.958481  -0.043904 
  1   2.251216  -1.356631  -1.007828 
  1   3.400803  -1.621376   0.271761 
  6  -1.095749  -1.409502  -0.684954 
  1  -0.534376  -2.315268  -0.877539 
  6  -2.412752  -1.518768  -0.114990 
  1  -2.825512  -2.507319   0.049863 
  6  -1.464053   0.999907  -0.987811 
  1  -0.922907   1.944294  -0.931362 
  1  -1.902396   0.948136  -1.990906 
  6  -2.591960   0.958481   0.043904 
  1  -3.400803   1.621376  -0.271761 
  1  -2.251216   1.356631   1.007828 

qrep pcmdoc geomview  nodis nocav g03defaults tsare=0.075 
nsfe=28
NVESolv=36  SolvMW=84.1595   Rsolv=2.815 
eps=2.34745273026226 RhoS=1.36724935387803

   -3.118154    -0.434970     0.246911     1.700000     0.975000
   -0.525244    -0.179089    -0.881108     1.700000     0.975000
   -4.082876    -0.549545     0.727275     1.200000     0.975000
    0.369421    -0.116466    -1.488305     1.200000     0.975000
    1.095749     1.409502     0.684953     1.700000     0.975000
    0.525244     0.179089     0.881108     1.700000     0.975000
    0.534376     2.315268     0.877539     1.200000     0.975000
   -0.369421     0.116466     1.488305     1.200000     0.975000
    1.464053    -0.999907     0.987811     1.700000     0.975000
    1.902396    -0.948136     1.990906     1.200000     0.975000
    0.922907    -1.944294     0.931362     1.200000     0.975000
    2.412752     1.518768     0.114990     1.700000     0.975000
    2.825512     2.507319    -0.049863     1.200000     0.975000
    3.118154     0.434970    -0.246911     1.700000     0.975000
    4.082876     0.549545    -0.727275     1.200000     0.975000
    2.591960    -0.958481    -0.043904     1.700000     0.975000
    2.251216    -1.356631    -1.007828     1.200000     0.975000
    3.400803    -1.621376     0.271761     1.200000     0.975000
   -1.095749    -1.409502    -0.684954     1.700000     0.975000
   -0.534376    -2.315268    -0.877539     1.200000     0.975000
   -2.412752    -1.518768    -0.114990     1.700000     0.975000
   -2.825512    -2.507319     0.049863     1.200000     0.975000
   -1.464053     0.999907    -0.987811     1.700000     0.975000
   -0.922907     1.944294    -0.931362     1.200000     0.975000
   -1.902396     0.948136    -1.990906     1.200000     0.975000
   -2.591960     0.958481     0.043904     1.700000     0.975000
   -3.400803     1.621376    -0.271761     1.200000     0.975000
   -2.251216     1.356631     1.007828     1.200000     0.975000

--link1--
%chk=meso-TS_4_2_xp-095.chk
%nproc=24
%mem=48GB
#p uwb97xd guess=mix def2tzvp 
# scrf=(iefpcm,solvent=Cyclohexane,read) nosym 6d 10f 

endo-2
xp-pcm for eta=3

0 1
  6  -3.118154  -0.434970   0.246911 
  6  -0.525244  -0.179089  -0.881108 
  1  -4.082876  -0.549545   0.727275 
  1   0.369421  -0.116466  -1.488305 
  6   1.095749   1.409502   0.684953 
  6   0.525244   0.179089   0.881108 
  1   0.534376   2.315268   0.877539 
  1  -0.369421   0.116466   1.488305 
  6   1.464053  -0.999907   0.987811 
  1   1.902396  -0.948136   1.990906 
  1   0.922907  -1.944294   0.931362 
  6   2.412752   1.518768   0.114990 
  1   2.825512   2.507319  -0.049863 
  6   3.118154   0.434970  -0.246911 
  1   4.082876   0.549545  -0.727275 
  6   2.591960  -0.958481  -0.043904 
  1   2.251216  -1.356631  -1.007828 
  1   3.400803  -1.621376   0.271761 
  6  -1.095749  -1.409502  -0.684954 
  1  -0.534376  -2.315268  -0.877539 
  6  -2.412752  -1.518768  -0.114990 
  1  -2.825512  -2.507319   0.049863 
  6  -1.464053   0.999907  -0.987811 
  1  -0.922907   1.944294  -0.931362 
  1  -1.902396   0.948136  -1.990906 
  6  -2.591960   0.958481   0.043904 
  1  -3.400803   1.621376  -0.271761 
  1  -2.251216   1.356631   1.007828 

qrep pcmdoc geomview  nodis nocav g03defaults tsare=0.075 
nsfe=28
NVESolv=36  SolvMW=84.1595   Rsolv=2.815 
eps=2.39339884323873 RhoS=1.4620813611373

   -3.118154    -0.434970     0.246911     1.700000     0.950000
   -0.525244    -0.179089    -0.881108     1.700000     0.950000
   -4.082876    -0.549545     0.727275     1.200000     0.950000
    0.369421    -0.116466    -1.488305     1.200000     0.950000
    1.095749     1.409502     0.684953     1.700000     0.950000
    0.525244     0.179089     0.881108     1.700000     0.950000
    0.534376     2.315268     0.877539     1.200000     0.950000
   -0.369421     0.116466     1.488305     1.200000     0.950000
    1.464053    -0.999907     0.987811     1.700000     0.950000
    1.902396    -0.948136     1.990906     1.200000     0.950000
    0.922907    -1.944294     0.931362     1.200000     0.950000
    2.412752     1.518768     0.114990     1.700000     0.950000
    2.825512     2.507319    -0.049863     1.200000     0.950000
    3.118154     0.434970    -0.246911     1.700000     0.950000
    4.082876     0.549545    -0.727275     1.200000     0.950000
    2.591960    -0.958481    -0.043904     1.700000     0.950000
    2.251216    -1.356631    -1.007828     1.200000     0.950000
    3.400803    -1.621376     0.271761     1.200000     0.950000
   -1.095749    -1.409502    -0.684954     1.700000     0.950000
   -0.534376    -2.315268    -0.877539     1.200000     0.950000
   -2.412752    -1.518768    -0.114990     1.700000     0.950000
   -2.825512    -2.507319     0.049863     1.200000     0.950000
   -1.464053     0.999907    -0.987811     1.700000     0.950000
   -0.922907     1.944294    -0.931362     1.200000     0.950000
   -1.902396     0.948136    -1.990906     1.200000     0.950000
   -2.591960     0.958481     0.043904     1.700000     0.950000
   -3.400803     1.621376    -0.271761     1.200000     0.950000
   -2.251216     1.356631     1.007828     1.200000     0.950000

