%chk=meso-TS_30_1_xp-12.chk
%nproc=24
%mem=48GB
#p uwb97xd guess=mix def2tzvp 
# scrf=(iefpcm,solvent=Cyclohexane,read) nosym 6d 10f 

endo-2
xp-pcm for eta=3

0 1
  6  -3.140994  -0.425040   0.223816 
  6  -0.406297  -0.126897  -0.659080 
  1  -4.135653  -0.544691   0.635088 
  1   0.317409  -0.130657  -1.478814 
  6   1.108935   1.445531   0.607368 
  6   0.406297   0.126897   0.659080 
  1   0.573183   2.344629   0.884397 
  1  -0.317409   0.130657   1.478814 
  6   1.429977  -0.982064   0.932984 
  1   1.831758  -0.829324   1.937981 
  1   0.944143  -1.958831   0.930603 
  6   2.409595   1.535044   0.144587 
  1   2.868872   2.514015   0.060519 
  6   3.140994   0.425040  -0.223816 
  1   4.135653   0.544691  -0.635088 
  6   2.588982  -0.955630  -0.063327 
  1   2.260703  -1.337606  -1.039452 
  1   3.377886  -1.638473   0.263228 
  6  -1.108935  -1.445531  -0.607368 
  1  -0.573183  -2.344629  -0.884397 
  6  -2.409595  -1.535044  -0.144587 
  1  -2.868872  -2.514015  -0.060519 
  6  -1.429977   0.982064  -0.932984 
  1  -0.944143   1.958831  -0.930603 
  1  -1.831758   0.829324  -1.937981 
  6  -2.588982   0.955630   0.063327 
  1  -3.377886   1.638473  -0.263228 
  1  -2.260703   1.337606   1.039452 

qrep pcmdoc geomview  nodis nocav g03defaults tsare=0.075 
nsfe=28
NVESolv=36  SolvMW=84.1595   Rsolv=2.815 
eps=2.0165 RhoS=0.778099999999998

   -3.140994    -0.425040     0.223816     1.700000     1.200000
   -0.406297    -0.126897    -0.659080     1.700000     1.200000
   -4.135653    -0.544691     0.635088     1.200000     1.200000
    0.317409    -0.130657    -1.478814     1.200000     1.200000
    1.108935     1.445531     0.607368     1.700000     1.200000
    0.406297     0.126897     0.659080     1.700000     1.200000
    0.573183     2.344629     0.884397     1.200000     1.200000
   -0.317409     0.130657     1.478814     1.200000     1.200000
    1.429977    -0.982064     0.932984     1.700000     1.200000
    1.831758    -0.829324     1.937981     1.200000     1.200000
    0.944143    -1.958831     0.930603     1.200000     1.200000
    2.409595     1.535044     0.144587     1.700000     1.200000
    2.868872     2.514015     0.060519     1.200000     1.200000
    3.140994     0.425040    -0.223816     1.700000     1.200000
    4.135653     0.544691    -0.635088     1.200000     1.200000
    2.588982    -0.955630    -0.063327     1.700000     1.200000
    2.260703    -1.337606    -1.039452     1.200000     1.200000
    3.377886    -1.638473     0.263228     1.200000     1.200000
   -1.108935    -1.445531    -0.607368     1.700000     1.200000
   -0.573183    -2.344629    -0.884397     1.200000     1.200000
   -2.409595    -1.535044    -0.144587     1.700000     1.200000
   -2.868872    -2.514015    -0.060519     1.200000     1.200000
   -1.429977     0.982064    -0.932984     1.700000     1.200000
   -0.944143     1.958831    -0.930603     1.200000     1.200000
   -1.831758     0.829324    -1.937981     1.200000     1.200000
   -2.588982     0.955630     0.063327     1.700000     1.200000
   -3.377886     1.638473    -0.263228     1.200000     1.200000
   -2.260703     1.337606     1.039452     1.200000     1.200000

--link1--
%chk=meso-TS_30_1_xp-115.chk
%nproc=24
%mem=48GB
#p uwb97xd guess=mix def2tzvp 
# scrf=(iefpcm,solvent=Cyclohexane,read) nosym 6d 10f 

endo-2
xp-pcm for eta=3

0 1
  6  -3.140994  -0.425040   0.223816 
  6  -0.406297  -0.126897  -0.659080 
  1  -4.135653  -0.544691   0.635088 
  1   0.317409  -0.130657  -1.478814 
  6   1.108935   1.445531   0.607368 
  6   0.406297   0.126897   0.659080 
  1   0.573183   2.344629   0.884397 
  1  -0.317409   0.130657   1.478814 
  6   1.429977  -0.982064   0.932984 
  1   1.831758  -0.829324   1.937981 
  1   0.944143  -1.958831   0.930603 
  6   2.409595   1.535044   0.144587 
  1   2.868872   2.514015   0.060519 
  6   3.140994   0.425040  -0.223816 
  1   4.135653   0.544691  -0.635088 
  6   2.588982  -0.955630  -0.063327 
  1   2.260703  -1.337606  -1.039452 
  1   3.377886  -1.638473   0.263228 
  6  -1.108935  -1.445531  -0.607368 
  1  -0.573183  -2.344629  -0.884397 
  6  -2.409595  -1.535044  -0.144587 
  1  -2.868872  -2.514015  -0.060519 
  6  -1.429977   0.982064  -0.932984 
  1  -0.944143   1.958831  -0.930603 
  1  -1.831758   0.829324  -1.937981 
  6  -2.588982   0.955630   0.063327 
  1  -3.377886   1.638473  -0.263228 
  1  -2.260703   1.337606   1.039452 

qrep pcmdoc geomview  nodis nocav g03defaults tsare=0.075 
nsfe=28
NVESolv=36  SolvMW=84.1595   Rsolv=2.815 
eps=2.08074995319988 RhoS=0.87957140140931

   -3.140994    -0.425040     0.223816     1.700000     1.150000
   -0.406297    -0.126897    -0.659080     1.700000     1.150000
   -4.135653    -0.544691     0.635088     1.200000     1.150000
    0.317409    -0.130657    -1.478814     1.200000     1.150000
    1.108935     1.445531     0.607368     1.700000     1.150000
    0.406297     0.126897     0.659080     1.700000     1.150000
    0.573183     2.344629     0.884397     1.200000     1.150000
   -0.317409     0.130657     1.478814     1.200000     1.150000
    1.429977    -0.982064     0.932984     1.700000     1.150000
    1.831758    -0.829324     1.937981     1.200000     1.150000
    0.944143    -1.958831     0.930603     1.200000     1.150000
    2.409595     1.535044     0.144587     1.700000     1.150000
    2.868872     2.514015     0.060519     1.200000     1.150000
    3.140994     0.425040    -0.223816     1.700000     1.150000
    4.135653     0.544691    -0.635088     1.200000     1.150000
    2.588982    -0.955630    -0.063327     1.700000     1.150000
    2.260703    -1.337606    -1.039452     1.200000     1.150000
    3.377886    -1.638473     0.263228     1.200000     1.150000
   -1.108935    -1.445531    -0.607368     1.700000     1.150000
   -0.573183    -2.344629    -0.884397     1.200000     1.150000
   -2.409595    -1.535044    -0.144587     1.700000     1.150000
   -2.868872    -2.514015    -0.060519     1.200000     1.150000
   -1.429977     0.982064    -0.932984     1.700000     1.150000
   -0.944143     1.958831    -0.930603     1.200000     1.150000
   -1.831758     0.829324    -1.937981     1.200000     1.150000
   -2.588982     0.955630     0.063327     1.700000     1.150000
   -3.377886     1.638473    -0.263228     1.200000     1.150000
   -2.260703     1.337606     1.039452     1.200000     1.150000

--link1--
%chk=meso-TS_30_1_xp-110.chk
%nproc=24
%mem=48GB
#p uwb97xd guess=mix def2tzvp 
# scrf=(iefpcm,solvent=Cyclohexane,read) nosym 6d 10f 

endo-2
xp-pcm for eta=3

0 1
  6  -3.140994  -0.425040   0.223816 
  6  -0.406297  -0.126897  -0.659080 
  1  -4.135653  -0.544691   0.635088 
  1   0.317409  -0.130657  -1.478814 
  6   1.108935   1.445531   0.607368 
  6   0.406297   0.126897   0.659080 
  1   0.573183   2.344629   0.884397 
  1  -0.317409   0.130657   1.478814 
  6   1.429977  -0.982064   0.932984 
  1   1.831758  -0.829324   1.937981 
  1   0.944143  -1.958831   0.930603 
  6   2.409595   1.535044   0.144587 
  1   2.868872   2.514015   0.060519 
  6   3.140994   0.425040  -0.223816 
  1   4.135653   0.544691  -0.635088 
  6   2.588982  -0.955630  -0.063327 
  1   2.260703  -1.337606  -1.039452 
  1   3.377886  -1.638473   0.263228 
  6  -1.108935  -1.445531  -0.607368 
  1  -0.573183  -2.344629  -0.884397 
  6  -2.409595  -1.535044  -0.144587 
  1  -2.868872  -2.514015  -0.060519 
  6  -1.429977   0.982064  -0.932984 
  1  -0.944143   1.958831  -0.930603 
  1  -1.831758   0.829324  -1.937981 
  6  -2.588982   0.955630   0.063327 
  1  -3.377886   1.638473  -0.263228 
  1  -2.260703   1.337606   1.039452 

qrep pcmdoc geomview  nodis nocav g03defaults tsare=0.075 
nsfe=28
NVESolv=36  SolvMW=84.1595   Rsolv=2.815 
eps=2.14797859684703 RhoS=0.992403372535132

   -3.140994    -0.425040     0.223816     1.700000     1.100000
   -0.406297    -0.126897    -0.659080     1.700000     1.100000
   -4.135653    -0.544691     0.635088     1.200000     1.100000
    0.317409    -0.130657    -1.478814     1.200000     1.100000
    1.108935     1.445531     0.607368     1.700000     1.100000
    0.406297     0.126897     0.659080     1.700000     1.100000
    0.573183     2.344629     0.884397     1.200000     1.100000
   -0.317409     0.130657     1.478814     1.200000     1.100000
    1.429977    -0.982064     0.932984     1.700000     1.100000
    1.831758    -0.829324     1.937981     1.200000     1.100000
    0.944143    -1.958831     0.930603     1.200000     1.100000
    2.409595     1.535044     0.144587     1.700000     1.100000
    2.868872     2.514015     0.060519     1.200000     1.100000
    3.140994     0.425040    -0.223816     1.700000     1.100000
    4.135653     0.544691    -0.635088     1.200000     1.100000
    2.588982    -0.955630    -0.063327     1.700000     1.100000
    2.260703    -1.337606    -1.039452     1.200000     1.100000
    3.377886    -1.638473     0.263228     1.200000     1.100000
   -1.108935    -1.445531    -0.607368     1.700000     1.100000
   -0.573183    -2.344629    -0.884397     1.200000     1.100000
   -2.409595    -1.535044    -0.144587     1.700000     1.100000
   -2.868872    -2.514015    -0.060519     1.200000     1.100000
   -1.429977     0.982064    -0.932984     1.700000     1.100000
   -0.944143     1.958831    -0.930603     1.200000     1.100000
   -1.831758     0.829324    -1.937981     1.200000     1.100000
   -2.588982     0.955630     0.063327     1.700000     1.100000
   -3.377886     1.638473    -0.263228     1.200000     1.100000
   -2.260703     1.337606     1.039452     1.200000     1.100000

--link1--
%chk=meso-TS_30_1_xp-105.chk
%nproc=24
%mem=48GB
#p uwb97xd guess=mix def2tzvp 
# scrf=(iefpcm,solvent=Cyclohexane,read) nosym 6d 10f 

endo-2
xp-pcm for eta=3

0 1
  6  -3.140994  -0.425040   0.223816 
  6  -0.406297  -0.126897  -0.659080 
  1  -4.135653  -0.544691   0.635088 
  1   0.317409  -0.130657  -1.478814 
  6   1.108935   1.445531   0.607368 
  6   0.406297   0.126897   0.659080 
  1   0.573183   2.344629   0.884397 
  1  -0.317409   0.130657   1.478814 
  6   1.429977  -0.982064   0.932984 
  1   1.831758  -0.829324   1.937981 
  1   0.944143  -1.958831   0.930603 
  6   2.409595   1.535044   0.144587 
  1   2.868872   2.514015   0.060519 
  6   3.140994   0.425040  -0.223816 
  1   4.135653   0.544691  -0.635088 
  6   2.588982  -0.955630  -0.063327 
  1   2.260703  -1.337606  -1.039452 
  1   3.377886  -1.638473   0.263228 
  6  -1.108935  -1.445531  -0.607368 
  1  -0.573183  -2.344629  -0.884397 
  6  -2.409595  -1.535044  -0.144587 
  1  -2.868872  -2.514015  -0.060519 
  6  -1.429977   0.982064  -0.932984 
  1  -0.944143   1.958831  -0.930603 
  1  -1.831758   0.829324  -1.937981 
  6  -2.588982   0.955630   0.063327 
  1  -3.377886   1.638473  -0.263228 
  1  -2.260703   1.337606   1.039452 

qrep pcmdoc geomview  nodis nocav g03defaults tsare=0.075 
nsfe=28
NVESolv=36  SolvMW=84.1595   Rsolv=2.815 
eps=2.22376880117094 RhoS=1.12776705486046

   -3.140994    -0.425040     0.223816     1.700000     1.050000
   -0.406297    -0.126897    -0.659080     1.700000     1.050000
   -4.135653    -0.544691     0.635088     1.200000     1.050000
    0.317409    -0.130657    -1.478814     1.200000     1.050000
    1.108935     1.445531     0.607368     1.700000     1.050000
    0.406297     0.126897     0.659080     1.700000     1.050000
    0.573183     2.344629     0.884397     1.200000     1.050000
   -0.317409     0.130657     1.478814     1.200000     1.050000
    1.429977    -0.982064     0.932984     1.700000     1.050000
    1.831758    -0.829324     1.937981     1.200000     1.050000
    0.944143    -1.958831     0.930603     1.200000     1.050000
    2.409595     1.535044     0.144587     1.700000     1.050000
    2.868872     2.514015     0.060519     1.200000     1.050000
    3.140994     0.425040    -0.223816     1.700000     1.050000
    4.135653     0.544691    -0.635088     1.200000     1.050000
    2.588982    -0.955630    -0.063327     1.700000     1.050000
    2.260703    -1.337606    -1.039452     1.200000     1.050000
    3.377886    -1.638473     0.263228     1.200000     1.050000
   -1.108935    -1.445531    -0.607368     1.700000     1.050000
   -0.573183    -2.344629    -0.884397     1.200000     1.050000
   -2.409595    -1.535044    -0.144587     1.700000     1.050000
   -2.868872    -2.514015    -0.060519     1.200000     1.050000
   -1.429977     0.982064    -0.932984     1.700000     1.050000
   -0.944143     1.958831    -0.930603     1.200000     1.050000
   -1.831758     0.829324    -1.937981     1.200000     1.050000
   -2.588982     0.955630     0.063327     1.700000     1.050000
   -3.377886     1.638473    -0.263228     1.200000     1.050000
   -2.260703     1.337606     1.039452     1.200000     1.050000

--link1--
%chk=meso-TS_30_1_xp-100.chk
%nproc=24
%mem=48GB
#p uwb97xd guess=mix def2tzvp 
# scrf=(iefpcm,solvent=Cyclohexane,read) nosym 6d 10f 

endo-2
xp-pcm for eta=3

0 1
  6  -3.140994  -0.425040   0.223816 
  6  -0.406297  -0.126897  -0.659080 
  1  -4.135653  -0.544691   0.635088 
  1   0.317409  -0.130657  -1.478814 
  6   1.108935   1.445531   0.607368 
  6   0.406297   0.126897   0.659080 
  1   0.573183   2.344629   0.884397 
  1  -0.317409   0.130657   1.478814 
  6   1.429977  -0.982064   0.932984 
  1   1.831758  -0.829324   1.937981 
  1   0.944143  -1.958831   0.930603 
  6   2.409595   1.535044   0.144587 
  1   2.868872   2.514015   0.060519 
  6   3.140994   0.425040  -0.223816 
  1   4.135653   0.544691  -0.635088 
  6   2.588982  -0.955630  -0.063327 
  1   2.260703  -1.337606  -1.039452 
  1   3.377886  -1.638473   0.263228 
  6  -1.108935  -1.445531  -0.607368 
  1  -0.573183  -2.344629  -0.884397 
  6  -2.409595  -1.535044  -0.144587 
  1  -2.868872  -2.514015  -0.060519 
  6  -1.429977   0.982064  -0.932984 
  1  -0.944143   1.958831  -0.930603 
  1  -1.831758   0.829324  -1.937981 
  6  -2.588982   0.955630   0.063327 
  1  -3.377886   1.638473  -0.263228 
  1  -2.260703   1.337606   1.039452 

qrep pcmdoc geomview  nodis nocav g03defaults tsare=0.075 
nsfe=28
NVESolv=36  SolvMW=84.1595   Rsolv=2.815 
eps=2.30480546666792 RhoS=1.28207131826017

   -3.140994    -0.425040     0.223816     1.700000     1.000000
   -0.406297    -0.126897    -0.659080     1.700000     1.000000
   -4.135653    -0.544691     0.635088     1.200000     1.000000
    0.317409    -0.130657    -1.478814     1.200000     1.000000
    1.108935     1.445531     0.607368     1.700000     1.000000
    0.406297     0.126897     0.659080     1.700000     1.000000
    0.573183     2.344629     0.884397     1.200000     1.000000
   -0.317409     0.130657     1.478814     1.200000     1.000000
    1.429977    -0.982064     0.932984     1.700000     1.000000
    1.831758    -0.829324     1.937981     1.200000     1.000000
    0.944143    -1.958831     0.930603     1.200000     1.000000
    2.409595     1.535044     0.144587     1.700000     1.000000
    2.868872     2.514015     0.060519     1.200000     1.000000
    3.140994     0.425040    -0.223816     1.700000     1.000000
    4.135653     0.544691    -0.635088     1.200000     1.000000
    2.588982    -0.955630    -0.063327     1.700000     1.000000
    2.260703    -1.337606    -1.039452     1.200000     1.000000
    3.377886    -1.638473     0.263228     1.200000     1.000000
   -1.108935    -1.445531    -0.607368     1.700000     1.000000
   -0.573183    -2.344629    -0.884397     1.200000     1.000000
   -2.409595    -1.535044    -0.144587     1.700000     1.000000
   -2.868872    -2.514015    -0.060519     1.200000     1.000000
   -1.429977     0.982064    -0.932984     1.700000     1.000000
   -0.944143     1.958831    -0.930603     1.200000     1.000000
   -1.831758     0.829324    -1.937981     1.200000     1.000000
   -2.588982     0.955630     0.063327     1.700000     1.000000
   -3.377886     1.638473    -0.263228     1.200000     1.000000
   -2.260703     1.337606     1.039452     1.200000     1.000000

--link1--
%chk=meso-TS_30_1_xp-0975.chk
%nproc=24
%mem=48GB
#p uwb97xd guess=mix def2tzvp 
# scrf=(iefpcm,solvent=Cyclohexane,read) nosym 6d 10f 

endo-2
xp-pcm for eta=3

0 1
  6  -3.140994  -0.425040   0.223816 
  6  -0.406297  -0.126897  -0.659080 
  1  -4.135653  -0.544691   0.635088 
  1   0.317409  -0.130657  -1.478814 
  6   1.108935   1.445531   0.607368 
  6   0.406297   0.126897   0.659080 
  1   0.573183   2.344629   0.884397 
  1  -0.317409   0.130657   1.478814 
  6   1.429977  -0.982064   0.932984 
  1   1.831758  -0.829324   1.937981 
  1   0.944143  -1.958831   0.930603 
  6   2.409595   1.535044   0.144587 
  1   2.868872   2.514015   0.060519 
  6   3.140994   0.425040  -0.223816 
  1   4.135653   0.544691  -0.635088 
  6   2.588982  -0.955630  -0.063327 
  1   2.260703  -1.337606  -1.039452 
  1   3.377886  -1.638473   0.263228 
  6  -1.108935  -1.445531  -0.607368 
  1  -0.573183  -2.344629  -0.884397 
  6  -2.409595  -1.535044  -0.144587 
  1  -2.868872  -2.514015  -0.060519 
  6  -1.429977   0.982064  -0.932984 
  1  -0.944143   1.958831  -0.930603 
  1  -1.831758   0.829324  -1.937981 
  6  -2.588982   0.955630   0.063327 
  1  -3.377886   1.638473  -0.263228 
  1  -2.260703   1.337606   1.039452 

qrep pcmdoc geomview  nodis nocav g03defaults tsare=0.075 
nsfe=28
NVESolv=36  SolvMW=84.1595   Rsolv=2.815 
eps=2.34745273026226 RhoS=1.36724935387803

   -3.140994    -0.425040     0.223816     1.700000     0.975000
   -0.406297    -0.126897    -0.659080     1.700000     0.975000
   -4.135653    -0.544691     0.635088     1.200000     0.975000
    0.317409    -0.130657    -1.478814     1.200000     0.975000
    1.108935     1.445531     0.607368     1.700000     0.975000
    0.406297     0.126897     0.659080     1.700000     0.975000
    0.573183     2.344629     0.884397     1.200000     0.975000
   -0.317409     0.130657     1.478814     1.200000     0.975000
    1.429977    -0.982064     0.932984     1.700000     0.975000
    1.831758    -0.829324     1.937981     1.200000     0.975000
    0.944143    -1.958831     0.930603     1.200000     0.975000
    2.409595     1.535044     0.144587     1.700000     0.975000
    2.868872     2.514015     0.060519     1.200000     0.975000
    3.140994     0.425040    -0.223816     1.700000     0.975000
    4.135653     0.544691    -0.635088     1.200000     0.975000
    2.588982    -0.955630    -0.063327     1.700000     0.975000
    2.260703    -1.337606    -1.039452     1.200000     0.975000
    3.377886    -1.638473     0.263228     1.200000     0.975000
   -1.108935    -1.445531    -0.607368     1.700000     0.975000
   -0.573183    -2.344629    -0.884397     1.200000     0.975000
   -2.409595    -1.535044    -0.144587     1.700000     0.975000
   -2.868872    -2.514015    -0.060519     1.200000     0.975000
   -1.429977     0.982064    -0.932984     1.700000     0.975000
   -0.944143     1.958831    -0.930603     1.200000     0.975000
   -1.831758     0.829324    -1.937981     1.200000     0.975000
   -2.588982     0.955630     0.063327     1.700000     0.975000
   -3.377886     1.638473    -0.263228     1.200000     0.975000
   -2.260703     1.337606     1.039452     1.200000     0.975000

--link1--
%chk=meso-TS_30_1_xp-095.chk
%nproc=24
%mem=48GB
#p uwb97xd guess=mix def2tzvp 
# scrf=(iefpcm,solvent=Cyclohexane,read) nosym 6d 10f 

endo-2
xp-pcm for eta=3

0 1
  6  -3.140994  -0.425040   0.223816 
  6  -0.406297  -0.126897  -0.659080 
  1  -4.135653  -0.544691   0.635088 
  1   0.317409  -0.130657  -1.478814 
  6   1.108935   1.445531   0.607368 
  6   0.406297   0.126897   0.659080 
  1   0.573183   2.344629   0.884397 
  1  -0.317409   0.130657   1.478814 
  6   1.429977  -0.982064   0.932984 
  1   1.831758  -0.829324   1.937981 
  1   0.944143  -1.958831   0.930603 
  6   2.409595   1.535044   0.144587 
  1   2.868872   2.514015   0.060519 
  6   3.140994   0.425040  -0.223816 
  1   4.135653   0.544691  -0.635088 
  6   2.588982  -0.955630  -0.063327 
  1   2.260703  -1.337606  -1.039452 
  1   3.377886  -1.638473   0.263228 
  6  -1.108935  -1.445531  -0.607368 
  1  -0.573183  -2.344629  -0.884397 
  6  -2.409595  -1.535044  -0.144587 
  1  -2.868872  -2.514015  -0.060519 
  6  -1.429977   0.982064  -0.932984 
  1  -0.944143   1.958831  -0.930603 
  1  -1.831758   0.829324  -1.937981 
  6  -2.588982   0.955630   0.063327 
  1  -3.377886   1.638473  -0.263228 
  1  -2.260703   1.337606   1.039452 

qrep pcmdoc geomview  nodis nocav g03defaults tsare=0.075 
nsfe=28
NVESolv=36  SolvMW=84.1595   Rsolv=2.815 
eps=2.39339884323873 RhoS=1.4620813611373

   -3.140994    -0.425040     0.223816     1.700000     0.950000
   -0.406297    -0.126897    -0.659080     1.700000     0.950000
   -4.135653    -0.544691     0.635088     1.200000     0.950000
    0.317409    -0.130657    -1.478814     1.200000     0.950000
    1.108935     1.445531     0.607368     1.700000     0.950000
    0.406297     0.126897     0.659080     1.700000     0.950000
    0.573183     2.344629     0.884397     1.200000     0.950000
   -0.317409     0.130657     1.478814     1.200000     0.950000
    1.429977    -0.982064     0.932984     1.700000     0.950000
    1.831758    -0.829324     1.937981     1.200000     0.950000
    0.944143    -1.958831     0.930603     1.200000     0.950000
    2.409595     1.535044     0.144587     1.700000     0.950000
    2.868872     2.514015     0.060519     1.200000     0.950000
    3.140994     0.425040    -0.223816     1.700000     0.950000
    4.135653     0.544691    -0.635088     1.200000     0.950000
    2.588982    -0.955630    -0.063327     1.700000     0.950000
    2.260703    -1.337606    -1.039452     1.200000     0.950000
    3.377886    -1.638473     0.263228     1.200000     0.950000
   -1.108935    -1.445531    -0.607368     1.700000     0.950000
   -0.573183    -2.344629    -0.884397     1.200000     0.950000
   -2.409595    -1.535044    -0.144587     1.700000     0.950000
   -2.868872    -2.514015    -0.060519     1.200000     0.950000
   -1.429977     0.982064    -0.932984     1.700000     0.950000
   -0.944143     1.958831    -0.930603     1.200000     0.950000
   -1.831758     0.829324    -1.937981     1.200000     0.950000
   -2.588982     0.955630     0.063327     1.700000     0.950000
   -3.377886     1.638473    -0.263228     1.200000     0.950000
   -2.260703     1.337606     1.039452     1.200000     0.950000

