%nproc=24
%mem=48GB
#p uwb97xd guess=mix def2tzvp 

endo-2

0 1
  6  -3.118154  -0.434970   0.246911 
  6  -0.525244  -0.179089  -0.881108 
  1  -4.082876  -0.549545   0.727275 
  1   0.369421  -0.116466  -1.488305 
  6   1.095749   1.409502   0.684953 
  6   0.525244   0.179089   0.881108 
  1   0.534376   2.315268   0.877539 
  1  -0.369421   0.116466   1.488305 
  6   1.464053  -0.999907   0.987811 
  1   1.902396  -0.948136   1.990906 
  1   0.922907  -1.944294   0.931362 
  6   2.412752   1.518768   0.114990 
  1   2.825512   2.507319  -0.049863 
  6   3.118154   0.434970  -0.246911 
  1   4.082876   0.549545  -0.727275 
  6   2.591960  -0.958481  -0.043904 
  1   2.251216  -1.356631  -1.007828 
  1   3.400803  -1.621376   0.271761 
  6  -1.095749  -1.409502  -0.684954 
  1  -0.534376  -2.315268  -0.877539 
  6  -2.412752  -1.518768  -0.114990 
  1  -2.825512  -2.507319   0.049863 
  6  -1.464053   0.999907  -0.987811 
  1  -0.922907   1.944294  -0.931362 
  1  -1.902396   0.948136  -1.990906 
  6  -2.591960   0.958481   0.043904 
  1  -3.400803   1.621376  -0.271761 
  1  -2.251216   1.356631   1.007828 

