%chk=meso-TS_76_2_xp-12.chk
%nproc=24
%mem=48GB
#p uwb97xd guess=mix def2tzvp 
# scrf=(iefpcm,solvent=Cyclohexane,read) nosym guess=only pop=none 

endo-2
xp-pcm for eta=3

0 1
  6  -3.117905  -0.439074   0.282722 
  6  -0.818524  -0.273593  -1.364901 
  1  -4.033330  -0.517117   0.857717 
  1   0.103373  -0.201366  -1.929344 
  6   1.228903   1.441011   0.876454 
  6   0.818524   0.273593   1.364901 
  1   0.643410   2.339945   1.029443 
  1  -0.103373   0.201366   1.929344 
  6   1.645400  -0.970035   1.206150 
  1   2.259726  -1.083800   2.109018 
  1   0.997461  -1.847095   1.165558 
  6   2.485196   1.535682   0.130802 
  1   2.886502   2.517404  -0.090679 
  6   3.117905   0.439074  -0.282722 
  1   4.033330   0.517117  -0.857717 
  6   2.546291  -0.929423  -0.030764 
  1   1.973763  -1.230286  -0.916701 
  1   3.347800  -1.663372   0.070740 
  6  -1.228903  -1.441011  -0.876454 
  1  -0.643410  -2.339945  -1.029443 
  6  -2.485196  -1.535682  -0.130802 
  1  -2.886502  -2.517404   0.090679 
  6  -1.645400   0.970035  -1.206150 
  1  -0.997461   1.847095  -1.165558 
  1  -2.259726   1.083800  -2.109018 
  6  -2.546291   0.929423   0.030764 
  1  -3.347800   1.663372  -0.070740 
  1  -1.973763   1.230286   0.916701 

qrep pcmdoc geomview  nodis nocav g03defaults tsare=0.075 
nsfe=28
NVESolv=36  SolvMW=84.1595   Rsolv=2.815 
eps=2.0165 RhoS=0.7781

   -3.117905    -0.439074     0.282722     1.700000     1.200000
   -0.818524    -0.273593    -1.364901     1.700000     1.200000
   -4.033330    -0.517117     0.857717     1.200000     1.200000
    0.103373    -0.201366    -1.929344     1.200000     1.200000
    1.228903     1.441011     0.876454     1.700000     1.200000
    0.818524     0.273593     1.364901     1.700000     1.200000
    0.643410     2.339945     1.029443     1.200000     1.200000
   -0.103373     0.201366     1.929344     1.200000     1.200000
    1.645400    -0.970035     1.206150     1.700000     1.200000
    2.259726    -1.083800     2.109018     1.200000     1.200000
    0.997461    -1.847095     1.165558     1.200000     1.200000
    2.485196     1.535682     0.130802     1.700000     1.200000
    2.886502     2.517404    -0.090679     1.200000     1.200000
    3.117905     0.439074    -0.282722     1.700000     1.200000
    4.033330     0.517117    -0.857717     1.200000     1.200000
    2.546291    -0.929423    -0.030764     1.700000     1.200000
    1.973763    -1.230286    -0.916701     1.200000     1.200000
    3.347800    -1.663372     0.070740     1.200000     1.200000
   -1.228903    -1.441011    -0.876454     1.700000     1.200000
   -0.643410    -2.339945    -1.029443     1.200000     1.200000
   -2.485196    -1.535682    -0.130802     1.700000     1.200000
   -2.886502    -2.517404     0.090679     1.200000     1.200000
   -1.645400     0.970035    -1.206150     1.700000     1.200000
   -0.997461     1.847095    -1.165558     1.200000     1.200000
   -2.259726     1.083800    -2.109018     1.200000     1.200000
   -2.546291     0.929423     0.030764     1.700000     1.200000
   -3.347800     1.663372    -0.070740     1.200000     1.200000
   -1.973763     1.230286     0.916701     1.200000     1.200000

--link1--
%chk=meso-TS_76_2_xp-115.chk
%nproc=24
%mem=48GB
#p uwb97xd guess=mix def2tzvp 
# scrf=(iefpcm,solvent=Cyclohexane,read) nosym guess=only pop=none 

endo-2
xp-pcm for eta=3

0 1
  6  -3.117905  -0.439074   0.282722 
  6  -0.818524  -0.273593  -1.364901 
  1  -4.033330  -0.517117   0.857717 
  1   0.103373  -0.201366  -1.929344 
  6   1.228903   1.441011   0.876454 
  6   0.818524   0.273593   1.364901 
  1   0.643410   2.339945   1.029443 
  1  -0.103373   0.201366   1.929344 
  6   1.645400  -0.970035   1.206150 
  1   2.259726  -1.083800   2.109018 
  1   0.997461  -1.847095   1.165558 
  6   2.485196   1.535682   0.130802 
  1   2.886502   2.517404  -0.090679 
  6   3.117905   0.439074  -0.282722 
  1   4.033330   0.517117  -0.857717 
  6   2.546291  -0.929423  -0.030764 
  1   1.973763  -1.230286  -0.916701 
  1   3.347800  -1.663372   0.070740 
  6  -1.228903  -1.441011  -0.876454 
  1  -0.643410  -2.339945  -1.029443 
  6  -2.485196  -1.535682  -0.130802 
  1  -2.886502  -2.517404   0.090679 
  6  -1.645400   0.970035  -1.206150 
  1  -0.997461   1.847095  -1.165558 
  1  -2.259726   1.083800  -2.109018 
  6  -2.546291   0.929423   0.030764 
  1  -3.347800   1.663372  -0.070740 
  1  -1.973763   1.230286   0.916701 

qrep pcmdoc geomview  nodis nocav g03defaults tsare=0.075 
nsfe=28
NVESolv=36  SolvMW=84.1595   Rsolv=2.815 
eps=2.0165 RhoS=0.7781

   -3.117905    -0.439074     0.282722     1.700000     1.150000
   -0.818524    -0.273593    -1.364901     1.700000     1.150000
   -4.033330    -0.517117     0.857717     1.200000     1.150000
    0.103373    -0.201366    -1.929344     1.200000     1.150000
    1.228903     1.441011     0.876454     1.700000     1.150000
    0.818524     0.273593     1.364901     1.700000     1.150000
    0.643410     2.339945     1.029443     1.200000     1.150000
   -0.103373     0.201366     1.929344     1.200000     1.150000
    1.645400    -0.970035     1.206150     1.700000     1.150000
    2.259726    -1.083800     2.109018     1.200000     1.150000
    0.997461    -1.847095     1.165558     1.200000     1.150000
    2.485196     1.535682     0.130802     1.700000     1.150000
    2.886502     2.517404    -0.090679     1.200000     1.150000
    3.117905     0.439074    -0.282722     1.700000     1.150000
    4.033330     0.517117    -0.857717     1.200000     1.150000
    2.546291    -0.929423    -0.030764     1.700000     1.150000
    1.973763    -1.230286    -0.916701     1.200000     1.150000
    3.347800    -1.663372     0.070740     1.200000     1.150000
   -1.228903    -1.441011    -0.876454     1.700000     1.150000
   -0.643410    -2.339945    -1.029443     1.200000     1.150000
   -2.485196    -1.535682    -0.130802     1.700000     1.150000
   -2.886502    -2.517404     0.090679     1.200000     1.150000
   -1.645400     0.970035    -1.206150     1.700000     1.150000
   -0.997461     1.847095    -1.165558     1.200000     1.150000
   -2.259726     1.083800    -2.109018     1.200000     1.150000
   -2.546291     0.929423     0.030764     1.700000     1.150000
   -3.347800     1.663372    -0.070740     1.200000     1.150000
   -1.973763     1.230286     0.916701     1.200000     1.150000

--link1--
%chk=meso-TS_76_2_xp-110.chk
%nproc=24
%mem=48GB
#p uwb97xd guess=mix def2tzvp 
# scrf=(iefpcm,solvent=Cyclohexane,read) nosym guess=only pop=none 

endo-2
xp-pcm for eta=3

0 1
  6  -3.117905  -0.439074   0.282722 
  6  -0.818524  -0.273593  -1.364901 
  1  -4.033330  -0.517117   0.857717 
  1   0.103373  -0.201366  -1.929344 
  6   1.228903   1.441011   0.876454 
  6   0.818524   0.273593   1.364901 
  1   0.643410   2.339945   1.029443 
  1  -0.103373   0.201366   1.929344 
  6   1.645400  -0.970035   1.206150 
  1   2.259726  -1.083800   2.109018 
  1   0.997461  -1.847095   1.165558 
  6   2.485196   1.535682   0.130802 
  1   2.886502   2.517404  -0.090679 
  6   3.117905   0.439074  -0.282722 
  1   4.033330   0.517117  -0.857717 
  6   2.546291  -0.929423  -0.030764 
  1   1.973763  -1.230286  -0.916701 
  1   3.347800  -1.663372   0.070740 
  6  -1.228903  -1.441011  -0.876454 
  1  -0.643410  -2.339945  -1.029443 
  6  -2.485196  -1.535682  -0.130802 
  1  -2.886502  -2.517404   0.090679 
  6  -1.645400   0.970035  -1.206150 
  1  -0.997461   1.847095  -1.165558 
  1  -2.259726   1.083800  -2.109018 
  6  -2.546291   0.929423   0.030764 
  1  -3.347800   1.663372  -0.070740 
  1  -1.973763   1.230286   0.916701 

qrep pcmdoc geomview  nodis nocav g03defaults tsare=0.075 
nsfe=28
NVESolv=36  SolvMW=84.1595   Rsolv=2.815 
eps=2.0165 RhoS=0.7781

   -3.117905    -0.439074     0.282722     1.700000     1.100000
   -0.818524    -0.273593    -1.364901     1.700000     1.100000
   -4.033330    -0.517117     0.857717     1.200000     1.100000
    0.103373    -0.201366    -1.929344     1.200000     1.100000
    1.228903     1.441011     0.876454     1.700000     1.100000
    0.818524     0.273593     1.364901     1.700000     1.100000
    0.643410     2.339945     1.029443     1.200000     1.100000
   -0.103373     0.201366     1.929344     1.200000     1.100000
    1.645400    -0.970035     1.206150     1.700000     1.100000
    2.259726    -1.083800     2.109018     1.200000     1.100000
    0.997461    -1.847095     1.165558     1.200000     1.100000
    2.485196     1.535682     0.130802     1.700000     1.100000
    2.886502     2.517404    -0.090679     1.200000     1.100000
    3.117905     0.439074    -0.282722     1.700000     1.100000
    4.033330     0.517117    -0.857717     1.200000     1.100000
    2.546291    -0.929423    -0.030764     1.700000     1.100000
    1.973763    -1.230286    -0.916701     1.200000     1.100000
    3.347800    -1.663372     0.070740     1.200000     1.100000
   -1.228903    -1.441011    -0.876454     1.700000     1.100000
   -0.643410    -2.339945    -1.029443     1.200000     1.100000
   -2.485196    -1.535682    -0.130802     1.700000     1.100000
   -2.886502    -2.517404     0.090679     1.200000     1.100000
   -1.645400     0.970035    -1.206150     1.700000     1.100000
   -0.997461     1.847095    -1.165558     1.200000     1.100000
   -2.259726     1.083800    -2.109018     1.200000     1.100000
   -2.546291     0.929423     0.030764     1.700000     1.100000
   -3.347800     1.663372    -0.070740     1.200000     1.100000
   -1.973763     1.230286     0.916701     1.200000     1.100000

--link1--
%chk=meso-TS_76_2_xp-105.chk
%nproc=24
%mem=48GB
#p uwb97xd guess=mix def2tzvp 
# scrf=(iefpcm,solvent=Cyclohexane,read) nosym guess=only pop=none 

endo-2
xp-pcm for eta=3

0 1
  6  -3.117905  -0.439074   0.282722 
  6  -0.818524  -0.273593  -1.364901 
  1  -4.033330  -0.517117   0.857717 
  1   0.103373  -0.201366  -1.929344 
  6   1.228903   1.441011   0.876454 
  6   0.818524   0.273593   1.364901 
  1   0.643410   2.339945   1.029443 
  1  -0.103373   0.201366   1.929344 
  6   1.645400  -0.970035   1.206150 
  1   2.259726  -1.083800   2.109018 
  1   0.997461  -1.847095   1.165558 
  6   2.485196   1.535682   0.130802 
  1   2.886502   2.517404  -0.090679 
  6   3.117905   0.439074  -0.282722 
  1   4.033330   0.517117  -0.857717 
  6   2.546291  -0.929423  -0.030764 
  1   1.973763  -1.230286  -0.916701 
  1   3.347800  -1.663372   0.070740 
  6  -1.228903  -1.441011  -0.876454 
  1  -0.643410  -2.339945  -1.029443 
  6  -2.485196  -1.535682  -0.130802 
  1  -2.886502  -2.517404   0.090679 
  6  -1.645400   0.970035  -1.206150 
  1  -0.997461   1.847095  -1.165558 
  1  -2.259726   1.083800  -2.109018 
  6  -2.546291   0.929423   0.030764 
  1  -3.347800   1.663372  -0.070740 
  1  -1.973763   1.230286   0.916701 

qrep pcmdoc geomview  nodis nocav g03defaults tsare=0.075 
nsfe=28
NVESolv=36  SolvMW=84.1595   Rsolv=2.815 
eps=2.0165 RhoS=0.7781

   -3.117905    -0.439074     0.282722     1.700000     1.050000
   -0.818524    -0.273593    -1.364901     1.700000     1.050000
   -4.033330    -0.517117     0.857717     1.200000     1.050000
    0.103373    -0.201366    -1.929344     1.200000     1.050000
    1.228903     1.441011     0.876454     1.700000     1.050000
    0.818524     0.273593     1.364901     1.700000     1.050000
    0.643410     2.339945     1.029443     1.200000     1.050000
   -0.103373     0.201366     1.929344     1.200000     1.050000
    1.645400    -0.970035     1.206150     1.700000     1.050000
    2.259726    -1.083800     2.109018     1.200000     1.050000
    0.997461    -1.847095     1.165558     1.200000     1.050000
    2.485196     1.535682     0.130802     1.700000     1.050000
    2.886502     2.517404    -0.090679     1.200000     1.050000
    3.117905     0.439074    -0.282722     1.700000     1.050000
    4.033330     0.517117    -0.857717     1.200000     1.050000
    2.546291    -0.929423    -0.030764     1.700000     1.050000
    1.973763    -1.230286    -0.916701     1.200000     1.050000
    3.347800    -1.663372     0.070740     1.200000     1.050000
   -1.228903    -1.441011    -0.876454     1.700000     1.050000
   -0.643410    -2.339945    -1.029443     1.200000     1.050000
   -2.485196    -1.535682    -0.130802     1.700000     1.050000
   -2.886502    -2.517404     0.090679     1.200000     1.050000
   -1.645400     0.970035    -1.206150     1.700000     1.050000
   -0.997461     1.847095    -1.165558     1.200000     1.050000
   -2.259726     1.083800    -2.109018     1.200000     1.050000
   -2.546291     0.929423     0.030764     1.700000     1.050000
   -3.347800     1.663372    -0.070740     1.200000     1.050000
   -1.973763     1.230286     0.916701     1.200000     1.050000

--link1--
%chk=meso-TS_76_2_xp-100.chk
%nproc=24
%mem=48GB
#p uwb97xd guess=mix def2tzvp 
# scrf=(iefpcm,solvent=Cyclohexane,read) nosym guess=only pop=none 

endo-2
xp-pcm for eta=3

0 1
  6  -3.117905  -0.439074   0.282722 
  6  -0.818524  -0.273593  -1.364901 
  1  -4.033330  -0.517117   0.857717 
  1   0.103373  -0.201366  -1.929344 
  6   1.228903   1.441011   0.876454 
  6   0.818524   0.273593   1.364901 
  1   0.643410   2.339945   1.029443 
  1  -0.103373   0.201366   1.929344 
  6   1.645400  -0.970035   1.206150 
  1   2.259726  -1.083800   2.109018 
  1   0.997461  -1.847095   1.165558 
  6   2.485196   1.535682   0.130802 
  1   2.886502   2.517404  -0.090679 
  6   3.117905   0.439074  -0.282722 
  1   4.033330   0.517117  -0.857717 
  6   2.546291  -0.929423  -0.030764 
  1   1.973763  -1.230286  -0.916701 
  1   3.347800  -1.663372   0.070740 
  6  -1.228903  -1.441011  -0.876454 
  1  -0.643410  -2.339945  -1.029443 
  6  -2.485196  -1.535682  -0.130802 
  1  -2.886502  -2.517404   0.090679 
  6  -1.645400   0.970035  -1.206150 
  1  -0.997461   1.847095  -1.165558 
  1  -2.259726   1.083800  -2.109018 
  6  -2.546291   0.929423   0.030764 
  1  -3.347800   1.663372  -0.070740 
  1  -1.973763   1.230286   0.916701 

qrep pcmdoc geomview  nodis nocav g03defaults tsare=0.075 
nsfe=28
NVESolv=36  SolvMW=84.1595   Rsolv=2.815 
eps=2.0165 RhoS=0.7781

   -3.117905    -0.439074     0.282722     1.700000     1.000000
   -0.818524    -0.273593    -1.364901     1.700000     1.000000
   -4.033330    -0.517117     0.857717     1.200000     1.000000
    0.103373    -0.201366    -1.929344     1.200000     1.000000
    1.228903     1.441011     0.876454     1.700000     1.000000
    0.818524     0.273593     1.364901     1.700000     1.000000
    0.643410     2.339945     1.029443     1.200000     1.000000
   -0.103373     0.201366     1.929344     1.200000     1.000000
    1.645400    -0.970035     1.206150     1.700000     1.000000
    2.259726    -1.083800     2.109018     1.200000     1.000000
    0.997461    -1.847095     1.165558     1.200000     1.000000
    2.485196     1.535682     0.130802     1.700000     1.000000
    2.886502     2.517404    -0.090679     1.200000     1.000000
    3.117905     0.439074    -0.282722     1.700000     1.000000
    4.033330     0.517117    -0.857717     1.200000     1.000000
    2.546291    -0.929423    -0.030764     1.700000     1.000000
    1.973763    -1.230286    -0.916701     1.200000     1.000000
    3.347800    -1.663372     0.070740     1.200000     1.000000
   -1.228903    -1.441011    -0.876454     1.700000     1.000000
   -0.643410    -2.339945    -1.029443     1.200000     1.000000
   -2.485196    -1.535682    -0.130802     1.700000     1.000000
   -2.886502    -2.517404     0.090679     1.200000     1.000000
   -1.645400     0.970035    -1.206150     1.700000     1.000000
   -0.997461     1.847095    -1.165558     1.200000     1.000000
   -2.259726     1.083800    -2.109018     1.200000     1.000000
   -2.546291     0.929423     0.030764     1.700000     1.000000
   -3.347800     1.663372    -0.070740     1.200000     1.000000
   -1.973763     1.230286     0.916701     1.200000     1.000000

--link1--
%chk=meso-TS_76_2_xp-0975.chk
%nproc=24
%mem=48GB
#p uwb97xd guess=mix def2tzvp 
# scrf=(iefpcm,solvent=Cyclohexane,read) nosym guess=only pop=none 

endo-2
xp-pcm for eta=3

0 1
  6  -3.117905  -0.439074   0.282722 
  6  -0.818524  -0.273593  -1.364901 
  1  -4.033330  -0.517117   0.857717 
  1   0.103373  -0.201366  -1.929344 
  6   1.228903   1.441011   0.876454 
  6   0.818524   0.273593   1.364901 
  1   0.643410   2.339945   1.029443 
  1  -0.103373   0.201366   1.929344 
  6   1.645400  -0.970035   1.206150 
  1   2.259726  -1.083800   2.109018 
  1   0.997461  -1.847095   1.165558 
  6   2.485196   1.535682   0.130802 
  1   2.886502   2.517404  -0.090679 
  6   3.117905   0.439074  -0.282722 
  1   4.033330   0.517117  -0.857717 
  6   2.546291  -0.929423  -0.030764 
  1   1.973763  -1.230286  -0.916701 
  1   3.347800  -1.663372   0.070740 
  6  -1.228903  -1.441011  -0.876454 
  1  -0.643410  -2.339945  -1.029443 
  6  -2.485196  -1.535682  -0.130802 
  1  -2.886502  -2.517404   0.090679 
  6  -1.645400   0.970035  -1.206150 
  1  -0.997461   1.847095  -1.165558 
  1  -2.259726   1.083800  -2.109018 
  6  -2.546291   0.929423   0.030764 
  1  -3.347800   1.663372  -0.070740 
  1  -1.973763   1.230286   0.916701 

qrep pcmdoc geomview  nodis nocav g03defaults tsare=0.075 
nsfe=28
NVESolv=36  SolvMW=84.1595   Rsolv=2.815 
eps=2.0165 RhoS=0.7781

   -3.117905    -0.439074     0.282722     1.700000     0.975000
   -0.818524    -0.273593    -1.364901     1.700000     0.975000
   -4.033330    -0.517117     0.857717     1.200000     0.975000
    0.103373    -0.201366    -1.929344     1.200000     0.975000
    1.228903     1.441011     0.876454     1.700000     0.975000
    0.818524     0.273593     1.364901     1.700000     0.975000
    0.643410     2.339945     1.029443     1.200000     0.975000
   -0.103373     0.201366     1.929344     1.200000     0.975000
    1.645400    -0.970035     1.206150     1.700000     0.975000
    2.259726    -1.083800     2.109018     1.200000     0.975000
    0.997461    -1.847095     1.165558     1.200000     0.975000
    2.485196     1.535682     0.130802     1.700000     0.975000
    2.886502     2.517404    -0.090679     1.200000     0.975000
    3.117905     0.439074    -0.282722     1.700000     0.975000
    4.033330     0.517117    -0.857717     1.200000     0.975000
    2.546291    -0.929423    -0.030764     1.700000     0.975000
    1.973763    -1.230286    -0.916701     1.200000     0.975000
    3.347800    -1.663372     0.070740     1.200000     0.975000
   -1.228903    -1.441011    -0.876454     1.700000     0.975000
   -0.643410    -2.339945    -1.029443     1.200000     0.975000
   -2.485196    -1.535682    -0.130802     1.700000     0.975000
   -2.886502    -2.517404     0.090679     1.200000     0.975000
   -1.645400     0.970035    -1.206150     1.700000     0.975000
   -0.997461     1.847095    -1.165558     1.200000     0.975000
   -2.259726     1.083800    -2.109018     1.200000     0.975000
   -2.546291     0.929423     0.030764     1.700000     0.975000
   -3.347800     1.663372    -0.070740     1.200000     0.975000
   -1.973763     1.230286     0.916701     1.200000     0.975000

--link1--
%chk=meso-TS_76_2_xp-095.chk
%nproc=24
%mem=48GB
#p uwb97xd guess=mix def2tzvp 
# scrf=(iefpcm,solvent=Cyclohexane,read) nosym guess=only pop=none 

endo-2
xp-pcm for eta=3

0 1
  6  -3.117905  -0.439074   0.282722 
  6  -0.818524  -0.273593  -1.364901 
  1  -4.033330  -0.517117   0.857717 
  1   0.103373  -0.201366  -1.929344 
  6   1.228903   1.441011   0.876454 
  6   0.818524   0.273593   1.364901 
  1   0.643410   2.339945   1.029443 
  1  -0.103373   0.201366   1.929344 
  6   1.645400  -0.970035   1.206150 
  1   2.259726  -1.083800   2.109018 
  1   0.997461  -1.847095   1.165558 
  6   2.485196   1.535682   0.130802 
  1   2.886502   2.517404  -0.090679 
  6   3.117905   0.439074  -0.282722 
  1   4.033330   0.517117  -0.857717 
  6   2.546291  -0.929423  -0.030764 
  1   1.973763  -1.230286  -0.916701 
  1   3.347800  -1.663372   0.070740 
  6  -1.228903  -1.441011  -0.876454 
  1  -0.643410  -2.339945  -1.029443 
  6  -2.485196  -1.535682  -0.130802 
  1  -2.886502  -2.517404   0.090679 
  6  -1.645400   0.970035  -1.206150 
  1  -0.997461   1.847095  -1.165558 
  1  -2.259726   1.083800  -2.109018 
  6  -2.546291   0.929423   0.030764 
  1  -3.347800   1.663372  -0.070740 
  1  -1.973763   1.230286   0.916701 

qrep pcmdoc geomview  nodis nocav g03defaults tsare=0.075 
nsfe=28
NVESolv=36  SolvMW=84.1595   Rsolv=2.815 
eps=2.0165 RhoS=0.7781

   -3.117905    -0.439074     0.282722     1.700000     0.950000
   -0.818524    -0.273593    -1.364901     1.700000     0.950000
   -4.033330    -0.517117     0.857717     1.200000     0.950000
    0.103373    -0.201366    -1.929344     1.200000     0.950000
    1.228903     1.441011     0.876454     1.700000     0.950000
    0.818524     0.273593     1.364901     1.700000     0.950000
    0.643410     2.339945     1.029443     1.200000     0.950000
   -0.103373     0.201366     1.929344     1.200000     0.950000
    1.645400    -0.970035     1.206150     1.700000     0.950000
    2.259726    -1.083800     2.109018     1.200000     0.950000
    0.997461    -1.847095     1.165558     1.200000     0.950000
    2.485196     1.535682     0.130802     1.700000     0.950000
    2.886502     2.517404    -0.090679     1.200000     0.950000
    3.117905     0.439074    -0.282722     1.700000     0.950000
    4.033330     0.517117    -0.857717     1.200000     0.950000
    2.546291    -0.929423    -0.030764     1.700000     0.950000
    1.973763    -1.230286    -0.916701     1.200000     0.950000
    3.347800    -1.663372     0.070740     1.200000     0.950000
   -1.228903    -1.441011    -0.876454     1.700000     0.950000
   -0.643410    -2.339945    -1.029443     1.200000     0.950000
   -2.485196    -1.535682    -0.130802     1.700000     0.950000
   -2.886502    -2.517404     0.090679     1.200000     0.950000
   -1.645400     0.970035    -1.206150     1.700000     0.950000
   -0.997461     1.847095    -1.165558     1.200000     0.950000
   -2.259726     1.083800    -2.109018     1.200000     0.950000
   -2.546291     0.929423     0.030764     1.700000     0.950000
   -3.347800     1.663372    -0.070740     1.200000     0.950000
   -1.973763     1.230286     0.916701     1.200000     0.950000

