%nproc=24
%mem=48GB
#p uwb97xd guess=mix def2tzvp 

endo-2

0 1
  6  -3.127758  -0.441505   0.260383 
  6  -0.716112  -0.247346  -1.214114 
  1  -4.074632  -0.535703   0.779409 
  1   0.239008  -0.163383  -1.717295 
  6   1.157484   1.423714   0.779189 
  6   0.716112   0.247346   1.214114 
  1   0.564265   2.320239   0.913385 
  1  -0.239008   0.163383   1.717295 
  6   1.551334  -0.994967   1.100395 
  1   2.071583  -1.126820   2.057664 
  1   0.909196  -1.868280   0.985124 
  6   2.452447   1.528989   0.107296 
  1   2.852807   2.514826  -0.097088 
  6   3.127758   0.441505  -0.260383 
  1   4.074632   0.535703  -0.779409 
  6   2.578015  -0.940965  -0.036465 
  1   2.126122  -1.287560  -0.974039 
  1   3.391158  -1.639135   0.171524 
  6  -1.157484  -1.423714  -0.779189 
  1  -0.564265  -2.320239  -0.913385 
  6  -2.452447  -1.528989  -0.107296 
  1  -2.852807  -2.514826   0.097088 
  6  -1.551334   0.994967  -1.100395 
  1  -0.909196   1.868280  -0.985124 
  1  -2.071583   1.126820  -2.057664 
  6  -2.578015   0.940965   0.036465 
  1  -3.391158   1.639135  -0.171524 
  1  -2.126122   1.287560   0.974039 

