%chk=meso-TS_7_2_xp-12.chk
%nproc=24
%mem=48GB
#p uwb97xd guess=mix def2tzvp 
# scrf=(iefpcm,solvent=Cyclohexane,read) nosym guess=only pop=none 

endo-2
xp-pcm for eta=3

0 1
  6  -3.118021  -0.436434   0.246814 
  6  -0.540801  -0.189187  -0.905365 
  1  -4.082489  -0.549871   0.728045 
  1   0.377295  -0.116929  -1.473260 
  6   1.091386   1.404996   0.687212 
  6   0.540801   0.189187   0.905365 
  1   0.527763   2.310929   0.871630 
  1  -0.377295   0.116929   1.473260 
  6   1.464971  -0.999714   0.988105 
  1   1.905333  -0.956079   1.991084 
  1   0.918248  -1.940154   0.928320 
  6   2.416056   1.516900   0.113501 
  1   2.826400   2.506211  -0.052048 
  6   3.118021   0.436434  -0.246814 
  1   4.082489   0.549871  -0.728045 
  6   2.591807  -0.958352  -0.044272 
  1   2.252673  -1.356402  -1.008685 
  1   3.400675  -1.620592   0.272198 
  6  -1.091386  -1.404996  -0.687212 
  1  -0.527763  -2.310929  -0.871630 
  6  -2.416056  -1.516900  -0.113501 
  1  -2.826400  -2.506211   0.052048 
  6  -1.464971   0.999714  -0.988105 
  1  -0.918248   1.940154  -0.928320 
  1  -1.905333   0.956079  -1.991084 
  6  -2.591807   0.958352   0.044272 
  1  -3.400675   1.620592  -0.272198 
  1  -2.252673   1.356402   1.008685 

qrep pcmdoc geomview  nodis nocav g03defaults tsare=0.075 
nsfe=28
NVESolv=36  SolvMW=84.1595   Rsolv=2.815 
eps=2.0165 RhoS=0.7781

   -3.118021    -0.436434     0.246814     1.700000     1.200000
   -0.540801    -0.189187    -0.905365     1.700000     1.200000
   -4.082489    -0.549871     0.728045     1.200000     1.200000
    0.377295    -0.116929    -1.473260     1.200000     1.200000
    1.091386     1.404996     0.687212     1.700000     1.200000
    0.540801     0.189187     0.905365     1.700000     1.200000
    0.527763     2.310929     0.871630     1.200000     1.200000
   -0.377295     0.116929     1.473260     1.200000     1.200000
    1.464971    -0.999714     0.988105     1.700000     1.200000
    1.905333    -0.956079     1.991084     1.200000     1.200000
    0.918248    -1.940154     0.928320     1.200000     1.200000
    2.416056     1.516900     0.113501     1.700000     1.200000
    2.826400     2.506211    -0.052048     1.200000     1.200000
    3.118021     0.436434    -0.246814     1.700000     1.200000
    4.082489     0.549871    -0.728045     1.200000     1.200000
    2.591807    -0.958352    -0.044272     1.700000     1.200000
    2.252673    -1.356402    -1.008685     1.200000     1.200000
    3.400675    -1.620592     0.272198     1.200000     1.200000
   -1.091386    -1.404996    -0.687212     1.700000     1.200000
   -0.527763    -2.310929    -0.871630     1.200000     1.200000
   -2.416056    -1.516900    -0.113501     1.700000     1.200000
   -2.826400    -2.506211     0.052048     1.200000     1.200000
   -1.464971     0.999714    -0.988105     1.700000     1.200000
   -0.918248     1.940154    -0.928320     1.200000     1.200000
   -1.905333     0.956079    -1.991084     1.200000     1.200000
   -2.591807     0.958352     0.044272     1.700000     1.200000
   -3.400675     1.620592    -0.272198     1.200000     1.200000
   -2.252673     1.356402     1.008685     1.200000     1.200000

--link1--
%chk=meso-TS_7_2_xp-115.chk
%nproc=24
%mem=48GB
#p uwb97xd guess=mix def2tzvp 
# scrf=(iefpcm,solvent=Cyclohexane,read) nosym guess=only pop=none 

endo-2
xp-pcm for eta=3

0 1
  6  -3.118021  -0.436434   0.246814 
  6  -0.540801  -0.189187  -0.905365 
  1  -4.082489  -0.549871   0.728045 
  1   0.377295  -0.116929  -1.473260 
  6   1.091386   1.404996   0.687212 
  6   0.540801   0.189187   0.905365 
  1   0.527763   2.310929   0.871630 
  1  -0.377295   0.116929   1.473260 
  6   1.464971  -0.999714   0.988105 
  1   1.905333  -0.956079   1.991084 
  1   0.918248  -1.940154   0.928320 
  6   2.416056   1.516900   0.113501 
  1   2.826400   2.506211  -0.052048 
  6   3.118021   0.436434  -0.246814 
  1   4.082489   0.549871  -0.728045 
  6   2.591807  -0.958352  -0.044272 
  1   2.252673  -1.356402  -1.008685 
  1   3.400675  -1.620592   0.272198 
  6  -1.091386  -1.404996  -0.687212 
  1  -0.527763  -2.310929  -0.871630 
  6  -2.416056  -1.516900  -0.113501 
  1  -2.826400  -2.506211   0.052048 
  6  -1.464971   0.999714  -0.988105 
  1  -0.918248   1.940154  -0.928320 
  1  -1.905333   0.956079  -1.991084 
  6  -2.591807   0.958352   0.044272 
  1  -3.400675   1.620592  -0.272198 
  1  -2.252673   1.356402   1.008685 

qrep pcmdoc geomview  nodis nocav g03defaults tsare=0.075 
nsfe=28
NVESolv=36  SolvMW=84.1595   Rsolv=2.815 
eps=2.0165 RhoS=0.7781

   -3.118021    -0.436434     0.246814     1.700000     1.150000
   -0.540801    -0.189187    -0.905365     1.700000     1.150000
   -4.082489    -0.549871     0.728045     1.200000     1.150000
    0.377295    -0.116929    -1.473260     1.200000     1.150000
    1.091386     1.404996     0.687212     1.700000     1.150000
    0.540801     0.189187     0.905365     1.700000     1.150000
    0.527763     2.310929     0.871630     1.200000     1.150000
   -0.377295     0.116929     1.473260     1.200000     1.150000
    1.464971    -0.999714     0.988105     1.700000     1.150000
    1.905333    -0.956079     1.991084     1.200000     1.150000
    0.918248    -1.940154     0.928320     1.200000     1.150000
    2.416056     1.516900     0.113501     1.700000     1.150000
    2.826400     2.506211    -0.052048     1.200000     1.150000
    3.118021     0.436434    -0.246814     1.700000     1.150000
    4.082489     0.549871    -0.728045     1.200000     1.150000
    2.591807    -0.958352    -0.044272     1.700000     1.150000
    2.252673    -1.356402    -1.008685     1.200000     1.150000
    3.400675    -1.620592     0.272198     1.200000     1.150000
   -1.091386    -1.404996    -0.687212     1.700000     1.150000
   -0.527763    -2.310929    -0.871630     1.200000     1.150000
   -2.416056    -1.516900    -0.113501     1.700000     1.150000
   -2.826400    -2.506211     0.052048     1.200000     1.150000
   -1.464971     0.999714    -0.988105     1.700000     1.150000
   -0.918248     1.940154    -0.928320     1.200000     1.150000
   -1.905333     0.956079    -1.991084     1.200000     1.150000
   -2.591807     0.958352     0.044272     1.700000     1.150000
   -3.400675     1.620592    -0.272198     1.200000     1.150000
   -2.252673     1.356402     1.008685     1.200000     1.150000

--link1--
%chk=meso-TS_7_2_xp-110.chk
%nproc=24
%mem=48GB
#p uwb97xd guess=mix def2tzvp 
# scrf=(iefpcm,solvent=Cyclohexane,read) nosym guess=only pop=none 

endo-2
xp-pcm for eta=3

0 1
  6  -3.118021  -0.436434   0.246814 
  6  -0.540801  -0.189187  -0.905365 
  1  -4.082489  -0.549871   0.728045 
  1   0.377295  -0.116929  -1.473260 
  6   1.091386   1.404996   0.687212 
  6   0.540801   0.189187   0.905365 
  1   0.527763   2.310929   0.871630 
  1  -0.377295   0.116929   1.473260 
  6   1.464971  -0.999714   0.988105 
  1   1.905333  -0.956079   1.991084 
  1   0.918248  -1.940154   0.928320 
  6   2.416056   1.516900   0.113501 
  1   2.826400   2.506211  -0.052048 
  6   3.118021   0.436434  -0.246814 
  1   4.082489   0.549871  -0.728045 
  6   2.591807  -0.958352  -0.044272 
  1   2.252673  -1.356402  -1.008685 
  1   3.400675  -1.620592   0.272198 
  6  -1.091386  -1.404996  -0.687212 
  1  -0.527763  -2.310929  -0.871630 
  6  -2.416056  -1.516900  -0.113501 
  1  -2.826400  -2.506211   0.052048 
  6  -1.464971   0.999714  -0.988105 
  1  -0.918248   1.940154  -0.928320 
  1  -1.905333   0.956079  -1.991084 
  6  -2.591807   0.958352   0.044272 
  1  -3.400675   1.620592  -0.272198 
  1  -2.252673   1.356402   1.008685 

qrep pcmdoc geomview  nodis nocav g03defaults tsare=0.075 
nsfe=28
NVESolv=36  SolvMW=84.1595   Rsolv=2.815 
eps=2.0165 RhoS=0.7781

   -3.118021    -0.436434     0.246814     1.700000     1.100000
   -0.540801    -0.189187    -0.905365     1.700000     1.100000
   -4.082489    -0.549871     0.728045     1.200000     1.100000
    0.377295    -0.116929    -1.473260     1.200000     1.100000
    1.091386     1.404996     0.687212     1.700000     1.100000
    0.540801     0.189187     0.905365     1.700000     1.100000
    0.527763     2.310929     0.871630     1.200000     1.100000
   -0.377295     0.116929     1.473260     1.200000     1.100000
    1.464971    -0.999714     0.988105     1.700000     1.100000
    1.905333    -0.956079     1.991084     1.200000     1.100000
    0.918248    -1.940154     0.928320     1.200000     1.100000
    2.416056     1.516900     0.113501     1.700000     1.100000
    2.826400     2.506211    -0.052048     1.200000     1.100000
    3.118021     0.436434    -0.246814     1.700000     1.100000
    4.082489     0.549871    -0.728045     1.200000     1.100000
    2.591807    -0.958352    -0.044272     1.700000     1.100000
    2.252673    -1.356402    -1.008685     1.200000     1.100000
    3.400675    -1.620592     0.272198     1.200000     1.100000
   -1.091386    -1.404996    -0.687212     1.700000     1.100000
   -0.527763    -2.310929    -0.871630     1.200000     1.100000
   -2.416056    -1.516900    -0.113501     1.700000     1.100000
   -2.826400    -2.506211     0.052048     1.200000     1.100000
   -1.464971     0.999714    -0.988105     1.700000     1.100000
   -0.918248     1.940154    -0.928320     1.200000     1.100000
   -1.905333     0.956079    -1.991084     1.200000     1.100000
   -2.591807     0.958352     0.044272     1.700000     1.100000
   -3.400675     1.620592    -0.272198     1.200000     1.100000
   -2.252673     1.356402     1.008685     1.200000     1.100000

--link1--
%chk=meso-TS_7_2_xp-105.chk
%nproc=24
%mem=48GB
#p uwb97xd guess=mix def2tzvp 
# scrf=(iefpcm,solvent=Cyclohexane,read) nosym guess=only pop=none 

endo-2
xp-pcm for eta=3

0 1
  6  -3.118021  -0.436434   0.246814 
  6  -0.540801  -0.189187  -0.905365 
  1  -4.082489  -0.549871   0.728045 
  1   0.377295  -0.116929  -1.473260 
  6   1.091386   1.404996   0.687212 
  6   0.540801   0.189187   0.905365 
  1   0.527763   2.310929   0.871630 
  1  -0.377295   0.116929   1.473260 
  6   1.464971  -0.999714   0.988105 
  1   1.905333  -0.956079   1.991084 
  1   0.918248  -1.940154   0.928320 
  6   2.416056   1.516900   0.113501 
  1   2.826400   2.506211  -0.052048 
  6   3.118021   0.436434  -0.246814 
  1   4.082489   0.549871  -0.728045 
  6   2.591807  -0.958352  -0.044272 
  1   2.252673  -1.356402  -1.008685 
  1   3.400675  -1.620592   0.272198 
  6  -1.091386  -1.404996  -0.687212 
  1  -0.527763  -2.310929  -0.871630 
  6  -2.416056  -1.516900  -0.113501 
  1  -2.826400  -2.506211   0.052048 
  6  -1.464971   0.999714  -0.988105 
  1  -0.918248   1.940154  -0.928320 
  1  -1.905333   0.956079  -1.991084 
  6  -2.591807   0.958352   0.044272 
  1  -3.400675   1.620592  -0.272198 
  1  -2.252673   1.356402   1.008685 

qrep pcmdoc geomview  nodis nocav g03defaults tsare=0.075 
nsfe=28
NVESolv=36  SolvMW=84.1595   Rsolv=2.815 
eps=2.0165 RhoS=0.7781

   -3.118021    -0.436434     0.246814     1.700000     1.050000
   -0.540801    -0.189187    -0.905365     1.700000     1.050000
   -4.082489    -0.549871     0.728045     1.200000     1.050000
    0.377295    -0.116929    -1.473260     1.200000     1.050000
    1.091386     1.404996     0.687212     1.700000     1.050000
    0.540801     0.189187     0.905365     1.700000     1.050000
    0.527763     2.310929     0.871630     1.200000     1.050000
   -0.377295     0.116929     1.473260     1.200000     1.050000
    1.464971    -0.999714     0.988105     1.700000     1.050000
    1.905333    -0.956079     1.991084     1.200000     1.050000
    0.918248    -1.940154     0.928320     1.200000     1.050000
    2.416056     1.516900     0.113501     1.700000     1.050000
    2.826400     2.506211    -0.052048     1.200000     1.050000
    3.118021     0.436434    -0.246814     1.700000     1.050000
    4.082489     0.549871    -0.728045     1.200000     1.050000
    2.591807    -0.958352    -0.044272     1.700000     1.050000
    2.252673    -1.356402    -1.008685     1.200000     1.050000
    3.400675    -1.620592     0.272198     1.200000     1.050000
   -1.091386    -1.404996    -0.687212     1.700000     1.050000
   -0.527763    -2.310929    -0.871630     1.200000     1.050000
   -2.416056    -1.516900    -0.113501     1.700000     1.050000
   -2.826400    -2.506211     0.052048     1.200000     1.050000
   -1.464971     0.999714    -0.988105     1.700000     1.050000
   -0.918248     1.940154    -0.928320     1.200000     1.050000
   -1.905333     0.956079    -1.991084     1.200000     1.050000
   -2.591807     0.958352     0.044272     1.700000     1.050000
   -3.400675     1.620592    -0.272198     1.200000     1.050000
   -2.252673     1.356402     1.008685     1.200000     1.050000

--link1--
%chk=meso-TS_7_2_xp-100.chk
%nproc=24
%mem=48GB
#p uwb97xd guess=mix def2tzvp 
# scrf=(iefpcm,solvent=Cyclohexane,read) nosym guess=only pop=none 

endo-2
xp-pcm for eta=3

0 1
  6  -3.118021  -0.436434   0.246814 
  6  -0.540801  -0.189187  -0.905365 
  1  -4.082489  -0.549871   0.728045 
  1   0.377295  -0.116929  -1.473260 
  6   1.091386   1.404996   0.687212 
  6   0.540801   0.189187   0.905365 
  1   0.527763   2.310929   0.871630 
  1  -0.377295   0.116929   1.473260 
  6   1.464971  -0.999714   0.988105 
  1   1.905333  -0.956079   1.991084 
  1   0.918248  -1.940154   0.928320 
  6   2.416056   1.516900   0.113501 
  1   2.826400   2.506211  -0.052048 
  6   3.118021   0.436434  -0.246814 
  1   4.082489   0.549871  -0.728045 
  6   2.591807  -0.958352  -0.044272 
  1   2.252673  -1.356402  -1.008685 
  1   3.400675  -1.620592   0.272198 
  6  -1.091386  -1.404996  -0.687212 
  1  -0.527763  -2.310929  -0.871630 
  6  -2.416056  -1.516900  -0.113501 
  1  -2.826400  -2.506211   0.052048 
  6  -1.464971   0.999714  -0.988105 
  1  -0.918248   1.940154  -0.928320 
  1  -1.905333   0.956079  -1.991084 
  6  -2.591807   0.958352   0.044272 
  1  -3.400675   1.620592  -0.272198 
  1  -2.252673   1.356402   1.008685 

qrep pcmdoc geomview  nodis nocav g03defaults tsare=0.075 
nsfe=28
NVESolv=36  SolvMW=84.1595   Rsolv=2.815 
eps=2.0165 RhoS=0.7781

   -3.118021    -0.436434     0.246814     1.700000     1.000000
   -0.540801    -0.189187    -0.905365     1.700000     1.000000
   -4.082489    -0.549871     0.728045     1.200000     1.000000
    0.377295    -0.116929    -1.473260     1.200000     1.000000
    1.091386     1.404996     0.687212     1.700000     1.000000
    0.540801     0.189187     0.905365     1.700000     1.000000
    0.527763     2.310929     0.871630     1.200000     1.000000
   -0.377295     0.116929     1.473260     1.200000     1.000000
    1.464971    -0.999714     0.988105     1.700000     1.000000
    1.905333    -0.956079     1.991084     1.200000     1.000000
    0.918248    -1.940154     0.928320     1.200000     1.000000
    2.416056     1.516900     0.113501     1.700000     1.000000
    2.826400     2.506211    -0.052048     1.200000     1.000000
    3.118021     0.436434    -0.246814     1.700000     1.000000
    4.082489     0.549871    -0.728045     1.200000     1.000000
    2.591807    -0.958352    -0.044272     1.700000     1.000000
    2.252673    -1.356402    -1.008685     1.200000     1.000000
    3.400675    -1.620592     0.272198     1.200000     1.000000
   -1.091386    -1.404996    -0.687212     1.700000     1.000000
   -0.527763    -2.310929    -0.871630     1.200000     1.000000
   -2.416056    -1.516900    -0.113501     1.700000     1.000000
   -2.826400    -2.506211     0.052048     1.200000     1.000000
   -1.464971     0.999714    -0.988105     1.700000     1.000000
   -0.918248     1.940154    -0.928320     1.200000     1.000000
   -1.905333     0.956079    -1.991084     1.200000     1.000000
   -2.591807     0.958352     0.044272     1.700000     1.000000
   -3.400675     1.620592    -0.272198     1.200000     1.000000
   -2.252673     1.356402     1.008685     1.200000     1.000000

--link1--
%chk=meso-TS_7_2_xp-0975.chk
%nproc=24
%mem=48GB
#p uwb97xd guess=mix def2tzvp 
# scrf=(iefpcm,solvent=Cyclohexane,read) nosym guess=only pop=none 

endo-2
xp-pcm for eta=3

0 1
  6  -3.118021  -0.436434   0.246814 
  6  -0.540801  -0.189187  -0.905365 
  1  -4.082489  -0.549871   0.728045 
  1   0.377295  -0.116929  -1.473260 
  6   1.091386   1.404996   0.687212 
  6   0.540801   0.189187   0.905365 
  1   0.527763   2.310929   0.871630 
  1  -0.377295   0.116929   1.473260 
  6   1.464971  -0.999714   0.988105 
  1   1.905333  -0.956079   1.991084 
  1   0.918248  -1.940154   0.928320 
  6   2.416056   1.516900   0.113501 
  1   2.826400   2.506211  -0.052048 
  6   3.118021   0.436434  -0.246814 
  1   4.082489   0.549871  -0.728045 
  6   2.591807  -0.958352  -0.044272 
  1   2.252673  -1.356402  -1.008685 
  1   3.400675  -1.620592   0.272198 
  6  -1.091386  -1.404996  -0.687212 
  1  -0.527763  -2.310929  -0.871630 
  6  -2.416056  -1.516900  -0.113501 
  1  -2.826400  -2.506211   0.052048 
  6  -1.464971   0.999714  -0.988105 
  1  -0.918248   1.940154  -0.928320 
  1  -1.905333   0.956079  -1.991084 
  6  -2.591807   0.958352   0.044272 
  1  -3.400675   1.620592  -0.272198 
  1  -2.252673   1.356402   1.008685 

qrep pcmdoc geomview  nodis nocav g03defaults tsare=0.075 
nsfe=28
NVESolv=36  SolvMW=84.1595   Rsolv=2.815 
eps=2.0165 RhoS=0.7781

   -3.118021    -0.436434     0.246814     1.700000     0.975000
   -0.540801    -0.189187    -0.905365     1.700000     0.975000
   -4.082489    -0.549871     0.728045     1.200000     0.975000
    0.377295    -0.116929    -1.473260     1.200000     0.975000
    1.091386     1.404996     0.687212     1.700000     0.975000
    0.540801     0.189187     0.905365     1.700000     0.975000
    0.527763     2.310929     0.871630     1.200000     0.975000
   -0.377295     0.116929     1.473260     1.200000     0.975000
    1.464971    -0.999714     0.988105     1.700000     0.975000
    1.905333    -0.956079     1.991084     1.200000     0.975000
    0.918248    -1.940154     0.928320     1.200000     0.975000
    2.416056     1.516900     0.113501     1.700000     0.975000
    2.826400     2.506211    -0.052048     1.200000     0.975000
    3.118021     0.436434    -0.246814     1.700000     0.975000
    4.082489     0.549871    -0.728045     1.200000     0.975000
    2.591807    -0.958352    -0.044272     1.700000     0.975000
    2.252673    -1.356402    -1.008685     1.200000     0.975000
    3.400675    -1.620592     0.272198     1.200000     0.975000
   -1.091386    -1.404996    -0.687212     1.700000     0.975000
   -0.527763    -2.310929    -0.871630     1.200000     0.975000
   -2.416056    -1.516900    -0.113501     1.700000     0.975000
   -2.826400    -2.506211     0.052048     1.200000     0.975000
   -1.464971     0.999714    -0.988105     1.700000     0.975000
   -0.918248     1.940154    -0.928320     1.200000     0.975000
   -1.905333     0.956079    -1.991084     1.200000     0.975000
   -2.591807     0.958352     0.044272     1.700000     0.975000
   -3.400675     1.620592    -0.272198     1.200000     0.975000
   -2.252673     1.356402     1.008685     1.200000     0.975000

--link1--
%chk=meso-TS_7_2_xp-095.chk
%nproc=24
%mem=48GB
#p uwb97xd guess=mix def2tzvp 
# scrf=(iefpcm,solvent=Cyclohexane,read) nosym guess=only pop=none 

endo-2
xp-pcm for eta=3

0 1
  6  -3.118021  -0.436434   0.246814 
  6  -0.540801  -0.189187  -0.905365 
  1  -4.082489  -0.549871   0.728045 
  1   0.377295  -0.116929  -1.473260 
  6   1.091386   1.404996   0.687212 
  6   0.540801   0.189187   0.905365 
  1   0.527763   2.310929   0.871630 
  1  -0.377295   0.116929   1.473260 
  6   1.464971  -0.999714   0.988105 
  1   1.905333  -0.956079   1.991084 
  1   0.918248  -1.940154   0.928320 
  6   2.416056   1.516900   0.113501 
  1   2.826400   2.506211  -0.052048 
  6   3.118021   0.436434  -0.246814 
  1   4.082489   0.549871  -0.728045 
  6   2.591807  -0.958352  -0.044272 
  1   2.252673  -1.356402  -1.008685 
  1   3.400675  -1.620592   0.272198 
  6  -1.091386  -1.404996  -0.687212 
  1  -0.527763  -2.310929  -0.871630 
  6  -2.416056  -1.516900  -0.113501 
  1  -2.826400  -2.506211   0.052048 
  6  -1.464971   0.999714  -0.988105 
  1  -0.918248   1.940154  -0.928320 
  1  -1.905333   0.956079  -1.991084 
  6  -2.591807   0.958352   0.044272 
  1  -3.400675   1.620592  -0.272198 
  1  -2.252673   1.356402   1.008685 

qrep pcmdoc geomview  nodis nocav g03defaults tsare=0.075 
nsfe=28
NVESolv=36  SolvMW=84.1595   Rsolv=2.815 
eps=2.0165 RhoS=0.7781

   -3.118021    -0.436434     0.246814     1.700000     0.950000
   -0.540801    -0.189187    -0.905365     1.700000     0.950000
   -4.082489    -0.549871     0.728045     1.200000     0.950000
    0.377295    -0.116929    -1.473260     1.200000     0.950000
    1.091386     1.404996     0.687212     1.700000     0.950000
    0.540801     0.189187     0.905365     1.700000     0.950000
    0.527763     2.310929     0.871630     1.200000     0.950000
   -0.377295     0.116929     1.473260     1.200000     0.950000
    1.464971    -0.999714     0.988105     1.700000     0.950000
    1.905333    -0.956079     1.991084     1.200000     0.950000
    0.918248    -1.940154     0.928320     1.200000     0.950000
    2.416056     1.516900     0.113501     1.700000     0.950000
    2.826400     2.506211    -0.052048     1.200000     0.950000
    3.118021     0.436434    -0.246814     1.700000     0.950000
    4.082489     0.549871    -0.728045     1.200000     0.950000
    2.591807    -0.958352    -0.044272     1.700000     0.950000
    2.252673    -1.356402    -1.008685     1.200000     0.950000
    3.400675    -1.620592     0.272198     1.200000     0.950000
   -1.091386    -1.404996    -0.687212     1.700000     0.950000
   -0.527763    -2.310929    -0.871630     1.200000     0.950000
   -2.416056    -1.516900    -0.113501     1.700000     0.950000
   -2.826400    -2.506211     0.052048     1.200000     0.950000
   -1.464971     0.999714    -0.988105     1.700000     0.950000
   -0.918248     1.940154    -0.928320     1.200000     0.950000
   -1.905333     0.956079    -1.991084     1.200000     0.950000
   -2.591807     0.958352     0.044272     1.700000     0.950000
   -3.400675     1.620592    -0.272198     1.200000     0.950000
   -2.252673     1.356402     1.008685     1.200000     0.950000

