%nproc=24
%mem=48GB
#p uwb97xd guess=mix def2tzvp 

endo-2

0 1
  6  -3.119553  -0.428795   0.247891 
  6  -0.472874  -0.145101  -0.800893 
  1  -4.085133  -0.548017   0.724268 
  1   0.340229  -0.114004  -1.522881 
  6   1.111723   1.426561   0.676669 
  6   0.472874   0.145101   0.800893 
  1   0.554265   2.328177   0.896217 
  1  -0.340229   0.114004   1.522881 
  6   1.460255  -0.999412   0.985694 
  1   1.891524  -0.921702   1.988892 
  1   0.937506  -1.955834   0.941557 
  6   2.400991   1.526011   0.121109 
  1   2.824596   2.511117  -0.038940 
  6   3.119553   0.428795  -0.247891 
  1   4.085133   0.548017  -0.724268 
  6   2.592577  -0.958866  -0.042893 
  1   2.246651  -1.357730  -1.005399 
  1   3.401542  -1.623704   0.270605 
  6  -1.111723  -1.426561  -0.676669 
  1  -0.554265  -2.328177  -0.896217 
  6  -2.400991  -1.526011  -0.121109 
  1  -2.824596  -2.511117   0.038940 
  6  -1.460255   0.999412  -0.985694 
  1  -0.937506   1.955834  -0.941557 
  1  -1.891524   0.921702  -1.988892 
  6  -2.592577   0.958866   0.042893 
  1  -3.401542   1.623704  -0.270605 
  1  -2.246651   1.357730   1.005399 

