%nproc=24
%mem=48GB
#p uwb97xd guess=mix def2tzvp 

endo-2

0 1
  6  -3.119466  -0.429328   0.247803 
  6  -0.478041  -0.148067  -0.809320 
  1  -4.084913  -0.548180   0.724617 
  1   0.342670  -0.114440  -1.521718 
  6   1.110536   1.425267   0.677564 
  6   0.478041   0.148067   0.809320 
  1   0.552290   2.327104   0.894112 
  1  -0.342670   0.114440   1.521718 
  6   1.460833  -0.999525   0.986214 
  1   1.893332  -0.925338   1.989291 
  1   0.935820  -1.954549   0.940440 
  6   2.401966   1.525357   0.120522 
  1   2.824442   2.510747  -0.040511 
  6   3.119466   0.429329  -0.247803 
  1   4.084913   0.548180  -0.724617 
  6   2.592516  -0.958788  -0.042989 
  1   2.246942  -1.357540  -1.005600 
  1   3.401495  -1.623475   0.270624 
  6  -1.110536  -1.425267  -0.677564 
  1  -0.552290  -2.327104  -0.894112 
  6  -2.401966  -1.525357  -0.120522 
  1  -2.824442  -2.510747   0.040511 
  6  -1.460833   0.999525  -0.986214 
  1  -0.935820   1.954549  -0.940440 
  1  -1.893332   0.925338  -1.989291 
  6  -2.592516   0.958788   0.042989 
  1  -3.401495   1.623475  -0.270624 
  1  -2.246942   1.357540   1.005600 

