%nproc=24
%mem=48GB
#p uwb97xd guess=mix def2tzvp 

endo-2

0 1
  6  -3.120165  -0.439520   0.280190 
  6  -0.807998  -0.270483  -1.349166 
  1  -4.039260  -0.519446   0.849052 
  1   0.117969  -0.196755  -1.906627 
  6   1.221266   1.438778   0.865571 
  6   0.807998   0.270483   1.349166 
  1   0.634256   2.337167   1.015854 
  1  -0.117969   0.196755   1.906627 
  6   1.635901  -0.972988   1.195334 
  1   2.239675  -1.089626   2.104856 
  1   0.987632  -1.849296   1.145396 
  6   2.482134   1.535015   0.127997 
  1   2.882920   2.517315  -0.091872 
  6   3.120165   0.439520  -0.280190 
  1   4.039260   0.519446  -0.849052 
  6   2.551272  -0.930669  -0.031151 
  1   1.991682  -1.236938  -0.923478 
  1   3.354963  -1.660578   0.081874 
  6  -1.221266  -1.438778  -0.865571 
  1  -0.634256  -2.337167  -1.015854 
  6  -2.482134  -1.535015  -0.127997 
  1  -2.882920  -2.517315   0.091872 
  6  -1.635901   0.972988  -1.195334 
  1  -0.987632   1.849296  -1.145396 
  1  -2.239675   1.089626  -2.104856 
  6  -2.551272   0.930669   0.031151 
  1  -3.354963   1.660578  -0.081874 
  1  -1.991682   1.236938   0.923479 

