%nproc=24
%mem=48GB
#p uwb97xd guess=mix def2tzvp 

endo-2

0 1
  6  -3.112701  -0.438218   0.287414 
  6  -0.835621  -0.278955  -1.391210 
  1  -4.021615  -0.513030   0.873051 
  1   0.079093  -0.209236  -1.967631 
  6   1.241175   1.444926   0.894868 
  6   0.835621   0.278955   1.391210 
  1   0.658535   2.344894   1.052712 
  1  -0.079093   0.209236   1.967631 
  6   1.660427  -0.965075   1.223903 
  1   2.292285  -1.074375   2.115245 
  1   1.012885  -1.843071   1.198477 
  6   2.489458   1.536753   0.135395 
  1   2.891764   2.517425  -0.088881 
  6   3.112701   0.438218  -0.287414 
  1   4.021615   0.513030  -0.873051 
  6   2.536625  -0.927372  -0.030223 
  1   1.942634  -1.219324  -0.904942 
  1   3.334179  -1.667940   0.052124 
  6  -1.241175  -1.444926  -0.894868 
  1  -0.658535  -2.344894  -1.052712 
  6  -2.489458  -1.536753  -0.135395 
  1  -2.891764  -2.517425   0.088881 
  6  -1.660427   0.965075  -1.223903 
  1  -1.012885   1.843071  -1.198477 
  1  -2.292285   1.074375  -2.115245 
  6  -2.536625   0.927372   0.030223 
  1  -3.334179   1.667940  -0.052124 
  1  -1.942634   1.219324   0.904942 

