%nproc=24
%mem=48GB
#p uwb97xd guess=mix def2tzvp 

endo-2

0 1
  6  -3.120053  -0.437296   0.247601 
  6  -0.582765  -0.208122  -0.986031 
  1  -4.084035  -0.549421   0.730161 
  1   0.376360  -0.119236  -1.476138 
  6   1.092928   1.407235   0.695695 
  6   0.582765   0.208122   0.986031 
  1   0.514464   2.309116   0.849982 
  1  -0.376360   0.119237   1.476138 
  6   1.473441  -0.999882   0.998114 
  1   1.930236  -1.007810   1.995578 
  1   0.900886  -1.922279   0.917856 
  6   2.421602   1.516304   0.111065 
  1   2.830156   2.505119  -0.060741 
  6   3.120053   0.437296  -0.247601 
  1   4.084035   0.549421  -0.730161 
  6   2.591259  -0.956820  -0.045733 
  1   2.248403  -1.352514  -1.009798 
  1   3.400569  -1.620098   0.266906 
  6  -1.092928  -1.407235  -0.695695 
  1  -0.514464  -2.309116  -0.849982 
  6  -2.421602  -1.516304  -0.111065 
  1  -2.830156  -2.505120   0.060741 
  6  -1.473441   0.999882  -0.998114 
  1  -0.900886   1.922279  -0.917856 
  1  -1.930236   1.007810  -1.995578 
  6  -2.591259   0.956820   0.045733 
  1  -3.400569   1.620098  -0.266906 
  1  -2.248403   1.352515   1.009798 

