%chk=meso-TS_10_2_xp-12.chk
%nproc=24
%mem=48GB
#p uwb97xd guess=mix def2tzvp 
# scrf=(iefpcm,solvent=Cyclohexane,read) nosym 6d 10f 

endo-2
xp-pcm for eta=3

0 1
  6  -3.118578  -0.436876   0.247024 
  6  -0.555477  -0.196368  -0.932206 
  1  -4.082851  -0.549917   0.728725 
  1   0.380936  -0.117306  -1.466881 
  6   1.090379   1.404463   0.689379 
  6   0.555477   0.196368   0.932206 
  1   0.521599   2.308823   0.864348 
  1  -0.380936   0.117306   1.466881 
  6   1.466810  -0.999509   0.989932 
  1   1.911942  -0.970218   1.991724 
  1   0.912395  -1.934620   0.924846 
  6   2.418004   1.516122   0.112667 
  1   2.827281   2.505496  -0.054615 
  6   3.118578   0.436876  -0.247024 
  1   4.082851   0.549917  -0.728725 
  6   2.591691  -0.957992  -0.044788 
  1   2.252888  -1.355863  -1.009385 
  1   3.400558  -1.620027   0.271880 
  6  -1.090379  -1.404463  -0.689379 
  1  -0.521599  -2.308823  -0.864348 
  6  -2.418004  -1.516122  -0.112667 
  1  -2.827281  -2.505496   0.054615 
  6  -1.466810   0.999509  -0.989932 
  1  -0.912395   1.934620  -0.924846 
  1  -1.911942   0.970219  -1.991724 
  6  -2.591691   0.957992   0.044788 
  1  -3.400558   1.620027  -0.271880 
  1  -2.252888   1.355863   1.009385 

qrep pcmdoc geomview  nodis nocav g03defaults tsare=0.075 
nsfe=28
NVESolv=36  SolvMW=84.1595   Rsolv=2.815 
eps=2.0165 RhoS=0.778099999999998

   -3.118578    -0.436876     0.247024     1.700000     1.200000
   -0.555477    -0.196368    -0.932206     1.700000     1.200000
   -4.082851    -0.549917     0.728725     1.200000     1.200000
    0.380936    -0.117306    -1.466881     1.200000     1.200000
    1.090379     1.404463     0.689379     1.700000     1.200000
    0.555477     0.196368     0.932206     1.700000     1.200000
    0.521599     2.308823     0.864348     1.200000     1.200000
   -0.380936     0.117306     1.466881     1.200000     1.200000
    1.466810    -0.999509     0.989932     1.700000     1.200000
    1.911942    -0.970218     1.991724     1.200000     1.200000
    0.912395    -1.934620     0.924846     1.200000     1.200000
    2.418004     1.516122     0.112667     1.700000     1.200000
    2.827281     2.505496    -0.054615     1.200000     1.200000
    3.118578     0.436876    -0.247024     1.700000     1.200000
    4.082851     0.549917    -0.728725     1.200000     1.200000
    2.591691    -0.957992    -0.044788     1.700000     1.200000
    2.252888    -1.355863    -1.009385     1.200000     1.200000
    3.400558    -1.620027     0.271880     1.200000     1.200000
   -1.090379    -1.404463    -0.689379     1.700000     1.200000
   -0.521599    -2.308823    -0.864348     1.200000     1.200000
   -2.418004    -1.516122    -0.112667     1.700000     1.200000
   -2.827281    -2.505496     0.054615     1.200000     1.200000
   -1.466810     0.999509    -0.989932     1.700000     1.200000
   -0.912395     1.934620    -0.924846     1.200000     1.200000
   -1.911942     0.970219    -1.991724     1.200000     1.200000
   -2.591691     0.957992     0.044788     1.700000     1.200000
   -3.400558     1.620027    -0.271880     1.200000     1.200000
   -2.252888     1.355863     1.009385     1.200000     1.200000

--link1--
%chk=meso-TS_10_2_xp-115.chk
%nproc=24
%mem=48GB
#p uwb97xd guess=mix def2tzvp 
# scrf=(iefpcm,solvent=Cyclohexane,read) nosym 6d 10f 

endo-2
xp-pcm for eta=3

0 1
  6  -3.118578  -0.436876   0.247024 
  6  -0.555477  -0.196368  -0.932206 
  1  -4.082851  -0.549917   0.728725 
  1   0.380936  -0.117306  -1.466881 
  6   1.090379   1.404463   0.689379 
  6   0.555477   0.196368   0.932206 
  1   0.521599   2.308823   0.864348 
  1  -0.380936   0.117306   1.466881 
  6   1.466810  -0.999509   0.989932 
  1   1.911942  -0.970218   1.991724 
  1   0.912395  -1.934620   0.924846 
  6   2.418004   1.516122   0.112667 
  1   2.827281   2.505496  -0.054615 
  6   3.118578   0.436876  -0.247024 
  1   4.082851   0.549917  -0.728725 
  6   2.591691  -0.957992  -0.044788 
  1   2.252888  -1.355863  -1.009385 
  1   3.400558  -1.620027   0.271880 
  6  -1.090379  -1.404463  -0.689379 
  1  -0.521599  -2.308823  -0.864348 
  6  -2.418004  -1.516122  -0.112667 
  1  -2.827281  -2.505496   0.054615 
  6  -1.466810   0.999509  -0.989932 
  1  -0.912395   1.934620  -0.924846 
  1  -1.911942   0.970219  -1.991724 
  6  -2.591691   0.957992   0.044788 
  1  -3.400558   1.620027  -0.271880 
  1  -2.252888   1.355863   1.009385 

qrep pcmdoc geomview  nodis nocav g03defaults tsare=0.075 
nsfe=28
NVESolv=36  SolvMW=84.1595   Rsolv=2.815 
eps=2.08074995319988 RhoS=0.87957140140931

   -3.118578    -0.436876     0.247024     1.700000     1.150000
   -0.555477    -0.196368    -0.932206     1.700000     1.150000
   -4.082851    -0.549917     0.728725     1.200000     1.150000
    0.380936    -0.117306    -1.466881     1.200000     1.150000
    1.090379     1.404463     0.689379     1.700000     1.150000
    0.555477     0.196368     0.932206     1.700000     1.150000
    0.521599     2.308823     0.864348     1.200000     1.150000
   -0.380936     0.117306     1.466881     1.200000     1.150000
    1.466810    -0.999509     0.989932     1.700000     1.150000
    1.911942    -0.970218     1.991724     1.200000     1.150000
    0.912395    -1.934620     0.924846     1.200000     1.150000
    2.418004     1.516122     0.112667     1.700000     1.150000
    2.827281     2.505496    -0.054615     1.200000     1.150000
    3.118578     0.436876    -0.247024     1.700000     1.150000
    4.082851     0.549917    -0.728725     1.200000     1.150000
    2.591691    -0.957992    -0.044788     1.700000     1.150000
    2.252888    -1.355863    -1.009385     1.200000     1.150000
    3.400558    -1.620027     0.271880     1.200000     1.150000
   -1.090379    -1.404463    -0.689379     1.700000     1.150000
   -0.521599    -2.308823    -0.864348     1.200000     1.150000
   -2.418004    -1.516122    -0.112667     1.700000     1.150000
   -2.827281    -2.505496     0.054615     1.200000     1.150000
   -1.466810     0.999509    -0.989932     1.700000     1.150000
   -0.912395     1.934620    -0.924846     1.200000     1.150000
   -1.911942     0.970219    -1.991724     1.200000     1.150000
   -2.591691     0.957992     0.044788     1.700000     1.150000
   -3.400558     1.620027    -0.271880     1.200000     1.150000
   -2.252888     1.355863     1.009385     1.200000     1.150000

--link1--
%chk=meso-TS_10_2_xp-110.chk
%nproc=24
%mem=48GB
#p uwb97xd guess=mix def2tzvp 
# scrf=(iefpcm,solvent=Cyclohexane,read) nosym 6d 10f 

endo-2
xp-pcm for eta=3

0 1
  6  -3.118578  -0.436876   0.247024 
  6  -0.555477  -0.196368  -0.932206 
  1  -4.082851  -0.549917   0.728725 
  1   0.380936  -0.117306  -1.466881 
  6   1.090379   1.404463   0.689379 
  6   0.555477   0.196368   0.932206 
  1   0.521599   2.308823   0.864348 
  1  -0.380936   0.117306   1.466881 
  6   1.466810  -0.999509   0.989932 
  1   1.911942  -0.970218   1.991724 
  1   0.912395  -1.934620   0.924846 
  6   2.418004   1.516122   0.112667 
  1   2.827281   2.505496  -0.054615 
  6   3.118578   0.436876  -0.247024 
  1   4.082851   0.549917  -0.728725 
  6   2.591691  -0.957992  -0.044788 
  1   2.252888  -1.355863  -1.009385 
  1   3.400558  -1.620027   0.271880 
  6  -1.090379  -1.404463  -0.689379 
  1  -0.521599  -2.308823  -0.864348 
  6  -2.418004  -1.516122  -0.112667 
  1  -2.827281  -2.505496   0.054615 
  6  -1.466810   0.999509  -0.989932 
  1  -0.912395   1.934620  -0.924846 
  1  -1.911942   0.970219  -1.991724 
  6  -2.591691   0.957992   0.044788 
  1  -3.400558   1.620027  -0.271880 
  1  -2.252888   1.355863   1.009385 

qrep pcmdoc geomview  nodis nocav g03defaults tsare=0.075 
nsfe=28
NVESolv=36  SolvMW=84.1595   Rsolv=2.815 
eps=2.14797859684703 RhoS=0.992403372535132

   -3.118578    -0.436876     0.247024     1.700000     1.100000
   -0.555477    -0.196368    -0.932206     1.700000     1.100000
   -4.082851    -0.549917     0.728725     1.200000     1.100000
    0.380936    -0.117306    -1.466881     1.200000     1.100000
    1.090379     1.404463     0.689379     1.700000     1.100000
    0.555477     0.196368     0.932206     1.700000     1.100000
    0.521599     2.308823     0.864348     1.200000     1.100000
   -0.380936     0.117306     1.466881     1.200000     1.100000
    1.466810    -0.999509     0.989932     1.700000     1.100000
    1.911942    -0.970218     1.991724     1.200000     1.100000
    0.912395    -1.934620     0.924846     1.200000     1.100000
    2.418004     1.516122     0.112667     1.700000     1.100000
    2.827281     2.505496    -0.054615     1.200000     1.100000
    3.118578     0.436876    -0.247024     1.700000     1.100000
    4.082851     0.549917    -0.728725     1.200000     1.100000
    2.591691    -0.957992    -0.044788     1.700000     1.100000
    2.252888    -1.355863    -1.009385     1.200000     1.100000
    3.400558    -1.620027     0.271880     1.200000     1.100000
   -1.090379    -1.404463    -0.689379     1.700000     1.100000
   -0.521599    -2.308823    -0.864348     1.200000     1.100000
   -2.418004    -1.516122    -0.112667     1.700000     1.100000
   -2.827281    -2.505496     0.054615     1.200000     1.100000
   -1.466810     0.999509    -0.989932     1.700000     1.100000
   -0.912395     1.934620    -0.924846     1.200000     1.100000
   -1.911942     0.970219    -1.991724     1.200000     1.100000
   -2.591691     0.957992     0.044788     1.700000     1.100000
   -3.400558     1.620027    -0.271880     1.200000     1.100000
   -2.252888     1.355863     1.009385     1.200000     1.100000

--link1--
%chk=meso-TS_10_2_xp-105.chk
%nproc=24
%mem=48GB
#p uwb97xd guess=mix def2tzvp 
# scrf=(iefpcm,solvent=Cyclohexane,read) nosym 6d 10f 

endo-2
xp-pcm for eta=3

0 1
  6  -3.118578  -0.436876   0.247024 
  6  -0.555477  -0.196368  -0.932206 
  1  -4.082851  -0.549917   0.728725 
  1   0.380936  -0.117306  -1.466881 
  6   1.090379   1.404463   0.689379 
  6   0.555477   0.196368   0.932206 
  1   0.521599   2.308823   0.864348 
  1  -0.380936   0.117306   1.466881 
  6   1.466810  -0.999509   0.989932 
  1   1.911942  -0.970218   1.991724 
  1   0.912395  -1.934620   0.924846 
  6   2.418004   1.516122   0.112667 
  1   2.827281   2.505496  -0.054615 
  6   3.118578   0.436876  -0.247024 
  1   4.082851   0.549917  -0.728725 
  6   2.591691  -0.957992  -0.044788 
  1   2.252888  -1.355863  -1.009385 
  1   3.400558  -1.620027   0.271880 
  6  -1.090379  -1.404463  -0.689379 
  1  -0.521599  -2.308823  -0.864348 
  6  -2.418004  -1.516122  -0.112667 
  1  -2.827281  -2.505496   0.054615 
  6  -1.466810   0.999509  -0.989932 
  1  -0.912395   1.934620  -0.924846 
  1  -1.911942   0.970219  -1.991724 
  6  -2.591691   0.957992   0.044788 
  1  -3.400558   1.620027  -0.271880 
  1  -2.252888   1.355863   1.009385 

qrep pcmdoc geomview  nodis nocav g03defaults tsare=0.075 
nsfe=28
NVESolv=36  SolvMW=84.1595   Rsolv=2.815 
eps=2.22376880117094 RhoS=1.12776705486046

   -3.118578    -0.436876     0.247024     1.700000     1.050000
   -0.555477    -0.196368    -0.932206     1.700000     1.050000
   -4.082851    -0.549917     0.728725     1.200000     1.050000
    0.380936    -0.117306    -1.466881     1.200000     1.050000
    1.090379     1.404463     0.689379     1.700000     1.050000
    0.555477     0.196368     0.932206     1.700000     1.050000
    0.521599     2.308823     0.864348     1.200000     1.050000
   -0.380936     0.117306     1.466881     1.200000     1.050000
    1.466810    -0.999509     0.989932     1.700000     1.050000
    1.911942    -0.970218     1.991724     1.200000     1.050000
    0.912395    -1.934620     0.924846     1.200000     1.050000
    2.418004     1.516122     0.112667     1.700000     1.050000
    2.827281     2.505496    -0.054615     1.200000     1.050000
    3.118578     0.436876    -0.247024     1.700000     1.050000
    4.082851     0.549917    -0.728725     1.200000     1.050000
    2.591691    -0.957992    -0.044788     1.700000     1.050000
    2.252888    -1.355863    -1.009385     1.200000     1.050000
    3.400558    -1.620027     0.271880     1.200000     1.050000
   -1.090379    -1.404463    -0.689379     1.700000     1.050000
   -0.521599    -2.308823    -0.864348     1.200000     1.050000
   -2.418004    -1.516122    -0.112667     1.700000     1.050000
   -2.827281    -2.505496     0.054615     1.200000     1.050000
   -1.466810     0.999509    -0.989932     1.700000     1.050000
   -0.912395     1.934620    -0.924846     1.200000     1.050000
   -1.911942     0.970219    -1.991724     1.200000     1.050000
   -2.591691     0.957992     0.044788     1.700000     1.050000
   -3.400558     1.620027    -0.271880     1.200000     1.050000
   -2.252888     1.355863     1.009385     1.200000     1.050000

--link1--
%chk=meso-TS_10_2_xp-100.chk
%nproc=24
%mem=48GB
#p uwb97xd guess=mix def2tzvp 
# scrf=(iefpcm,solvent=Cyclohexane,read) nosym 6d 10f 

endo-2
xp-pcm for eta=3

0 1
  6  -3.118578  -0.436876   0.247024 
  6  -0.555477  -0.196368  -0.932206 
  1  -4.082851  -0.549917   0.728725 
  1   0.380936  -0.117306  -1.466881 
  6   1.090379   1.404463   0.689379 
  6   0.555477   0.196368   0.932206 
  1   0.521599   2.308823   0.864348 
  1  -0.380936   0.117306   1.466881 
  6   1.466810  -0.999509   0.989932 
  1   1.911942  -0.970218   1.991724 
  1   0.912395  -1.934620   0.924846 
  6   2.418004   1.516122   0.112667 
  1   2.827281   2.505496  -0.054615 
  6   3.118578   0.436876  -0.247024 
  1   4.082851   0.549917  -0.728725 
  6   2.591691  -0.957992  -0.044788 
  1   2.252888  -1.355863  -1.009385 
  1   3.400558  -1.620027   0.271880 
  6  -1.090379  -1.404463  -0.689379 
  1  -0.521599  -2.308823  -0.864348 
  6  -2.418004  -1.516122  -0.112667 
  1  -2.827281  -2.505496   0.054615 
  6  -1.466810   0.999509  -0.989932 
  1  -0.912395   1.934620  -0.924846 
  1  -1.911942   0.970219  -1.991724 
  6  -2.591691   0.957992   0.044788 
  1  -3.400558   1.620027  -0.271880 
  1  -2.252888   1.355863   1.009385 

qrep pcmdoc geomview  nodis nocav g03defaults tsare=0.075 
nsfe=28
NVESolv=36  SolvMW=84.1595   Rsolv=2.815 
eps=2.30480546666792 RhoS=1.28207131826017

   -3.118578    -0.436876     0.247024     1.700000     1.000000
   -0.555477    -0.196368    -0.932206     1.700000     1.000000
   -4.082851    -0.549917     0.728725     1.200000     1.000000
    0.380936    -0.117306    -1.466881     1.200000     1.000000
    1.090379     1.404463     0.689379     1.700000     1.000000
    0.555477     0.196368     0.932206     1.700000     1.000000
    0.521599     2.308823     0.864348     1.200000     1.000000
   -0.380936     0.117306     1.466881     1.200000     1.000000
    1.466810    -0.999509     0.989932     1.700000     1.000000
    1.911942    -0.970218     1.991724     1.200000     1.000000
    0.912395    -1.934620     0.924846     1.200000     1.000000
    2.418004     1.516122     0.112667     1.700000     1.000000
    2.827281     2.505496    -0.054615     1.200000     1.000000
    3.118578     0.436876    -0.247024     1.700000     1.000000
    4.082851     0.549917    -0.728725     1.200000     1.000000
    2.591691    -0.957992    -0.044788     1.700000     1.000000
    2.252888    -1.355863    -1.009385     1.200000     1.000000
    3.400558    -1.620027     0.271880     1.200000     1.000000
   -1.090379    -1.404463    -0.689379     1.700000     1.000000
   -0.521599    -2.308823    -0.864348     1.200000     1.000000
   -2.418004    -1.516122    -0.112667     1.700000     1.000000
   -2.827281    -2.505496     0.054615     1.200000     1.000000
   -1.466810     0.999509    -0.989932     1.700000     1.000000
   -0.912395     1.934620    -0.924846     1.200000     1.000000
   -1.911942     0.970219    -1.991724     1.200000     1.000000
   -2.591691     0.957992     0.044788     1.700000     1.000000
   -3.400558     1.620027    -0.271880     1.200000     1.000000
   -2.252888     1.355863     1.009385     1.200000     1.000000

--link1--
%chk=meso-TS_10_2_xp-0975.chk
%nproc=24
%mem=48GB
#p uwb97xd guess=mix def2tzvp 
# scrf=(iefpcm,solvent=Cyclohexane,read) nosym 6d 10f 

endo-2
xp-pcm for eta=3

0 1
  6  -3.118578  -0.436876   0.247024 
  6  -0.555477  -0.196368  -0.932206 
  1  -4.082851  -0.549917   0.728725 
  1   0.380936  -0.117306  -1.466881 
  6   1.090379   1.404463   0.689379 
  6   0.555477   0.196368   0.932206 
  1   0.521599   2.308823   0.864348 
  1  -0.380936   0.117306   1.466881 
  6   1.466810  -0.999509   0.989932 
  1   1.911942  -0.970218   1.991724 
  1   0.912395  -1.934620   0.924846 
  6   2.418004   1.516122   0.112667 
  1   2.827281   2.505496  -0.054615 
  6   3.118578   0.436876  -0.247024 
  1   4.082851   0.549917  -0.728725 
  6   2.591691  -0.957992  -0.044788 
  1   2.252888  -1.355863  -1.009385 
  1   3.400558  -1.620027   0.271880 
  6  -1.090379  -1.404463  -0.689379 
  1  -0.521599  -2.308823  -0.864348 
  6  -2.418004  -1.516122  -0.112667 
  1  -2.827281  -2.505496   0.054615 
  6  -1.466810   0.999509  -0.989932 
  1  -0.912395   1.934620  -0.924846 
  1  -1.911942   0.970219  -1.991724 
  6  -2.591691   0.957992   0.044788 
  1  -3.400558   1.620027  -0.271880 
  1  -2.252888   1.355863   1.009385 

qrep pcmdoc geomview  nodis nocav g03defaults tsare=0.075 
nsfe=28
NVESolv=36  SolvMW=84.1595   Rsolv=2.815 
eps=2.34745273026226 RhoS=1.36724935387803

   -3.118578    -0.436876     0.247024     1.700000     0.975000
   -0.555477    -0.196368    -0.932206     1.700000     0.975000
   -4.082851    -0.549917     0.728725     1.200000     0.975000
    0.380936    -0.117306    -1.466881     1.200000     0.975000
    1.090379     1.404463     0.689379     1.700000     0.975000
    0.555477     0.196368     0.932206     1.700000     0.975000
    0.521599     2.308823     0.864348     1.200000     0.975000
   -0.380936     0.117306     1.466881     1.200000     0.975000
    1.466810    -0.999509     0.989932     1.700000     0.975000
    1.911942    -0.970218     1.991724     1.200000     0.975000
    0.912395    -1.934620     0.924846     1.200000     0.975000
    2.418004     1.516122     0.112667     1.700000     0.975000
    2.827281     2.505496    -0.054615     1.200000     0.975000
    3.118578     0.436876    -0.247024     1.700000     0.975000
    4.082851     0.549917    -0.728725     1.200000     0.975000
    2.591691    -0.957992    -0.044788     1.700000     0.975000
    2.252888    -1.355863    -1.009385     1.200000     0.975000
    3.400558    -1.620027     0.271880     1.200000     0.975000
   -1.090379    -1.404463    -0.689379     1.700000     0.975000
   -0.521599    -2.308823    -0.864348     1.200000     0.975000
   -2.418004    -1.516122    -0.112667     1.700000     0.975000
   -2.827281    -2.505496     0.054615     1.200000     0.975000
   -1.466810     0.999509    -0.989932     1.700000     0.975000
   -0.912395     1.934620    -0.924846     1.200000     0.975000
   -1.911942     0.970219    -1.991724     1.200000     0.975000
   -2.591691     0.957992     0.044788     1.700000     0.975000
   -3.400558     1.620027    -0.271880     1.200000     0.975000
   -2.252888     1.355863     1.009385     1.200000     0.975000

--link1--
%chk=meso-TS_10_2_xp-095.chk
%nproc=24
%mem=48GB
#p uwb97xd guess=mix def2tzvp 
# scrf=(iefpcm,solvent=Cyclohexane,read) nosym 6d 10f 

endo-2
xp-pcm for eta=3

0 1
  6  -3.118578  -0.436876   0.247024 
  6  -0.555477  -0.196368  -0.932206 
  1  -4.082851  -0.549917   0.728725 
  1   0.380936  -0.117306  -1.466881 
  6   1.090379   1.404463   0.689379 
  6   0.555477   0.196368   0.932206 
  1   0.521599   2.308823   0.864348 
  1  -0.380936   0.117306   1.466881 
  6   1.466810  -0.999509   0.989932 
  1   1.911942  -0.970218   1.991724 
  1   0.912395  -1.934620   0.924846 
  6   2.418004   1.516122   0.112667 
  1   2.827281   2.505496  -0.054615 
  6   3.118578   0.436876  -0.247024 
  1   4.082851   0.549917  -0.728725 
  6   2.591691  -0.957992  -0.044788 
  1   2.252888  -1.355863  -1.009385 
  1   3.400558  -1.620027   0.271880 
  6  -1.090379  -1.404463  -0.689379 
  1  -0.521599  -2.308823  -0.864348 
  6  -2.418004  -1.516122  -0.112667 
  1  -2.827281  -2.505496   0.054615 
  6  -1.466810   0.999509  -0.989932 
  1  -0.912395   1.934620  -0.924846 
  1  -1.911942   0.970219  -1.991724 
  6  -2.591691   0.957992   0.044788 
  1  -3.400558   1.620027  -0.271880 
  1  -2.252888   1.355863   1.009385 

qrep pcmdoc geomview  nodis nocav g03defaults tsare=0.075 
nsfe=28
NVESolv=36  SolvMW=84.1595   Rsolv=2.815 
eps=2.39339884323873 RhoS=1.4620813611373

   -3.118578    -0.436876     0.247024     1.700000     0.950000
   -0.555477    -0.196368    -0.932206     1.700000     0.950000
   -4.082851    -0.549917     0.728725     1.200000     0.950000
    0.380936    -0.117306    -1.466881     1.200000     0.950000
    1.090379     1.404463     0.689379     1.700000     0.950000
    0.555477     0.196368     0.932206     1.700000     0.950000
    0.521599     2.308823     0.864348     1.200000     0.950000
   -0.380936     0.117306     1.466881     1.200000     0.950000
    1.466810    -0.999509     0.989932     1.700000     0.950000
    1.911942    -0.970218     1.991724     1.200000     0.950000
    0.912395    -1.934620     0.924846     1.200000     0.950000
    2.418004     1.516122     0.112667     1.700000     0.950000
    2.827281     2.505496    -0.054615     1.200000     0.950000
    3.118578     0.436876    -0.247024     1.700000     0.950000
    4.082851     0.549917    -0.728725     1.200000     0.950000
    2.591691    -0.957992    -0.044788     1.700000     0.950000
    2.252888    -1.355863    -1.009385     1.200000     0.950000
    3.400558    -1.620027     0.271880     1.200000     0.950000
   -1.090379    -1.404463    -0.689379     1.700000     0.950000
   -0.521599    -2.308823    -0.864348     1.200000     0.950000
   -2.418004    -1.516122    -0.112667     1.700000     0.950000
   -2.827281    -2.505496     0.054615     1.200000     0.950000
   -1.466810     0.999509    -0.989932     1.700000     0.950000
   -0.912395     1.934620    -0.924846     1.200000     0.950000
   -1.911942     0.970219    -1.991724     1.200000     0.950000
   -2.591691     0.957992     0.044788     1.700000     0.950000
   -3.400558     1.620027    -0.271880     1.200000     0.950000
   -2.252888     1.355863     1.009385     1.200000     0.950000

