%nproc=24
%mem=48GB
#p uwb97xd guess=mix def2tzvp 

endo-2

0 1
  6  -3.130926  -0.423925   0.230614 
  6  -0.402668  -0.125188  -0.661714 
  1  -4.121721  -0.544101   0.651020 
  1   0.324925  -0.126026  -1.477873 
  6   1.104701   1.443859   0.614659 
  6   0.402668   0.125188   0.661714 
  1   0.570306   2.342088   0.897018 
  1  -0.324925   0.126026   1.477873 
  6   1.426074  -0.983719   0.936566 
  1   1.827679  -0.830304   1.941515 
  1   0.940037  -1.960429   0.934664 
  6   2.402045   1.533898   0.142597 
  1   2.860563   2.512891   0.054740 
  6   3.130926   0.423925  -0.230614 
  1   4.121721   0.544101  -0.651020 
  6   2.584558  -0.957939  -0.060346 
  1   2.258123  -1.348285  -1.033742 
  1   3.376997  -1.634728   0.270453 
  6  -1.104701  -1.443859  -0.614659 
  1  -0.570306  -2.342088  -0.897018 
  6  -2.402045  -1.533898  -0.142597 
  1  -2.860563  -2.512891  -0.054740 
  6  -1.426074   0.983719  -0.936566 
  1  -0.940037   1.960429  -0.934664 
  1  -1.827679   0.830304  -1.941515 
  6  -2.584558   0.957939   0.060346 
  1  -3.376997   1.634728  -0.270453 
  1  -2.258122   1.348285   1.033742 

