%nproc=24
%mem=48GB
#p uwb97xd guess=mix def2tzvp 

endo-2

0 1
  6  -3.119623  -0.428287   0.247977 
  6  -0.467744  -0.142247  -0.792389 
  1  -4.085353  -0.547852   0.723900 
  1   0.337990  -0.113517  -1.523464 
  6   1.112786   1.427748   0.675736 
  6   0.467744   0.142247   0.792389 
  1   0.556231   2.329182   0.898405 
  1  -0.337990   0.113517   1.523464 
  6   1.459612  -0.999280   0.985076 
  1   1.889507  -0.917784   1.988422 
  1   0.939242  -1.957153   0.942698 
  6   2.400074   1.526641   0.121689 
  1   2.824822   2.511480  -0.037221 
  6   3.119623   0.428287  -0.247977 
  1   4.085353   0.547852  -0.723900 
  6   2.592636  -0.958956  -0.042799 
  1   2.246423  -1.357949  -1.005214 
  1   3.401580  -1.623929   0.270629 
  6  -1.112786  -1.427748  -0.675736 
  1  -0.556231  -2.329182  -0.898405 
  6  -2.400074  -1.526641  -0.121689 
  1  -2.824822  -2.511480   0.037221 
  6  -1.459612   0.999279  -0.985076 
  1  -0.939242   1.957153  -0.942698 
  1  -1.889507   0.917784  -1.988422 
  6  -2.592636   0.958956   0.042799 
  1  -3.401580   1.623929  -0.270628 
  1  -2.246422   1.357949   1.005214 

