%nproc=24
%mem=48GB
#p uwb97xd guess=mix def2tzvp 

endo-2

0 1
  6  -3.127681  -0.441423   0.258958 
  6  -0.708381  -0.245534  -1.202422 
  1  -4.076548  -0.536846   0.774111 
  1   0.248962  -0.160472  -1.700991 
  6   1.152306   1.422704   0.772430 
  6   0.708381   0.245534   1.202422 
  1   0.558988   2.319273   0.905524 
  1  -0.248962   0.160472   1.700991 
  6   1.545018  -0.996200   1.092829 
  1   2.059657  -1.126856   2.053246 
  1   0.904290  -1.869997   0.974198 
  6   2.450083   1.528310   0.106435 
  1   2.850945   2.514335  -0.096069 
  6   3.127681   0.441423  -0.258958 
  1   4.076548   0.536846  -0.774111 
  6   2.579330  -0.941931  -0.037180 
  1   2.135763  -1.291670  -0.977567 
  1   3.392662  -1.637636   0.178291 
  6  -1.152306  -1.422704  -0.772430 
  1  -0.558988  -2.319273  -0.905524 
  6  -2.450083  -1.528310  -0.106435 
  1  -2.850945  -2.514335   0.096069 
  6  -1.545018   0.996200  -1.092829 
  1  -0.904290   1.869997  -0.974198 
  1  -2.059657   1.126856  -2.053246 
  6  -2.579330   0.941931   0.037180 
  1  -3.392662   1.637636  -0.178291 
  1  -2.135763   1.291670   0.977567 

