%nproc=24
%mem=48GB
#p uwb97xd guess=mix def2tzvp 

endo-2

0 1
  6  -3.125103  -0.439830   0.251664 
  6  -0.655676  -0.232679  -1.119546 
  1  -4.084506  -0.543787   0.745202 
  1   0.313601  -0.140713  -1.591454 
  6   1.120378   1.416678   0.731706 
  6   0.655676   0.232679   1.119546 
  1   0.528259   2.314350   0.859558 
  1  -0.313601   0.140713   1.591454 
  6   1.508003  -1.000833   1.045480 
  1   1.993748  -1.102940   2.024140 
  1   0.887683  -1.887877   0.925900 
  6   2.435820   1.522860   0.105448 
  1   2.841375   2.509839  -0.082748 
  6   3.125103   0.439830  -0.251664 
  1   4.084506   0.543787  -0.745202 
  6   2.586327  -0.949138  -0.042641 
  1   2.195642  -1.321391  -0.997766 
  1   3.399445  -1.628062   0.222239 
  6  -1.120378  -1.416678  -0.731706 
  1  -0.528259  -2.314350  -0.859558 
  6  -2.435820  -1.522860  -0.105448 
  1  -2.841375  -2.509839   0.082749 
  6  -1.508003   1.000833  -1.045480 
  1  -0.887683   1.887877  -0.925899 
  1  -1.993748   1.102941  -2.024140 
  6  -2.586327   0.949138   0.042641 
  1  -3.399445   1.628062  -0.222239 
  1  -2.195642   1.321391   0.997766 

