%chk=meso-TS_31_2_xp-12.chk
%nproc=24
%mem=48GB
#p uwb97xd guess=mix def2tzvp 
# scrf=(iefpcm,solvent=Cyclohexane,read) nosym guess=only pop=none 

endo-2
xp-pcm for eta=3

0 1
  6  -3.124486  -0.439464   0.250893 
  6  -0.647306  -0.230427  -1.105597 
  1  -4.084971  -0.544748   0.742034 
  1   0.323194  -0.137629  -1.574480 
  6   1.115957   1.415764   0.726197 
  6   0.647306   0.230427   1.105597 
  1   0.524506   2.313770   0.854246 
  1  -0.323194   0.137629   1.574480 
  6   1.503007  -1.001045   1.038660 
  1   1.985221  -1.095436   2.019831 
  1   0.887003  -1.891265   0.921479 
  6   2.433841   1.521901   0.105946 
  1   2.840105   2.509020  -0.080013 
  6   3.124486   0.439464  -0.250893 
  1   4.084971   0.544748  -0.742034 
  6   2.587213  -0.950307  -0.043454 
  1   2.204157  -1.326175  -1.000254 
  1   3.400038  -1.626681   0.228849 
  6  -1.115957  -1.415764  -0.726197 
  1  -0.524506  -2.313770  -0.854246 
  6  -2.433841  -1.521901  -0.105946 
  1  -2.840105  -2.509020   0.080013 
  6  -1.503007   1.001045  -1.038660 
  1  -0.887003   1.891265  -0.921479 
  1  -1.985221   1.095436  -2.019831 
  6  -2.587213   0.950307   0.043454 
  1  -3.400038   1.626680  -0.228849 
  1  -2.204158   1.326175   1.000254 

qrep pcmdoc geomview  nodis nocav g03defaults tsare=0.075 
nsfe=28
NVESolv=36  SolvMW=84.1595   Rsolv=2.815 
eps=2.0165 RhoS=0.7781

   -3.124486    -0.439464     0.250893     1.700000     1.200000
   -0.647306    -0.230427    -1.105597     1.700000     1.200000
   -4.084971    -0.544748     0.742034     1.200000     1.200000
    0.323194    -0.137629    -1.574480     1.200000     1.200000
    1.115957     1.415764     0.726197     1.700000     1.200000
    0.647306     0.230427     1.105597     1.700000     1.200000
    0.524506     2.313770     0.854246     1.200000     1.200000
   -0.323194     0.137629     1.574480     1.200000     1.200000
    1.503007    -1.001045     1.038660     1.700000     1.200000
    1.985221    -1.095436     2.019831     1.200000     1.200000
    0.887003    -1.891265     0.921479     1.200000     1.200000
    2.433841     1.521901     0.105946     1.700000     1.200000
    2.840105     2.509020    -0.080013     1.200000     1.200000
    3.124486     0.439464    -0.250893     1.700000     1.200000
    4.084971     0.544748    -0.742034     1.200000     1.200000
    2.587213    -0.950307    -0.043454     1.700000     1.200000
    2.204157    -1.326175    -1.000254     1.200000     1.200000
    3.400038    -1.626681     0.228849     1.200000     1.200000
   -1.115957    -1.415764    -0.726197     1.700000     1.200000
   -0.524506    -2.313770    -0.854246     1.200000     1.200000
   -2.433841    -1.521901    -0.105946     1.700000     1.200000
   -2.840105    -2.509020     0.080013     1.200000     1.200000
   -1.503007     1.001045    -1.038660     1.700000     1.200000
   -0.887003     1.891265    -0.921479     1.200000     1.200000
   -1.985221     1.095436    -2.019831     1.200000     1.200000
   -2.587213     0.950307     0.043454     1.700000     1.200000
   -3.400038     1.626680    -0.228849     1.200000     1.200000
   -2.204158     1.326175     1.000254     1.200000     1.200000

--link1--
%chk=meso-TS_31_2_xp-115.chk
%nproc=24
%mem=48GB
#p uwb97xd guess=mix def2tzvp 
# scrf=(iefpcm,solvent=Cyclohexane,read) nosym guess=only pop=none 

endo-2
xp-pcm for eta=3

0 1
  6  -3.124486  -0.439464   0.250893 
  6  -0.647306  -0.230427  -1.105597 
  1  -4.084971  -0.544748   0.742034 
  1   0.323194  -0.137629  -1.574480 
  6   1.115957   1.415764   0.726197 
  6   0.647306   0.230427   1.105597 
  1   0.524506   2.313770   0.854246 
  1  -0.323194   0.137629   1.574480 
  6   1.503007  -1.001045   1.038660 
  1   1.985221  -1.095436   2.019831 
  1   0.887003  -1.891265   0.921479 
  6   2.433841   1.521901   0.105946 
  1   2.840105   2.509020  -0.080013 
  6   3.124486   0.439464  -0.250893 
  1   4.084971   0.544748  -0.742034 
  6   2.587213  -0.950307  -0.043454 
  1   2.204157  -1.326175  -1.000254 
  1   3.400038  -1.626681   0.228849 
  6  -1.115957  -1.415764  -0.726197 
  1  -0.524506  -2.313770  -0.854246 
  6  -2.433841  -1.521901  -0.105946 
  1  -2.840105  -2.509020   0.080013 
  6  -1.503007   1.001045  -1.038660 
  1  -0.887003   1.891265  -0.921479 
  1  -1.985221   1.095436  -2.019831 
  6  -2.587213   0.950307   0.043454 
  1  -3.400038   1.626680  -0.228849 
  1  -2.204158   1.326175   1.000254 

qrep pcmdoc geomview  nodis nocav g03defaults tsare=0.075 
nsfe=28
NVESolv=36  SolvMW=84.1595   Rsolv=2.815 
eps=2.0165 RhoS=0.7781

   -3.124486    -0.439464     0.250893     1.700000     1.150000
   -0.647306    -0.230427    -1.105597     1.700000     1.150000
   -4.084971    -0.544748     0.742034     1.200000     1.150000
    0.323194    -0.137629    -1.574480     1.200000     1.150000
    1.115957     1.415764     0.726197     1.700000     1.150000
    0.647306     0.230427     1.105597     1.700000     1.150000
    0.524506     2.313770     0.854246     1.200000     1.150000
   -0.323194     0.137629     1.574480     1.200000     1.150000
    1.503007    -1.001045     1.038660     1.700000     1.150000
    1.985221    -1.095436     2.019831     1.200000     1.150000
    0.887003    -1.891265     0.921479     1.200000     1.150000
    2.433841     1.521901     0.105946     1.700000     1.150000
    2.840105     2.509020    -0.080013     1.200000     1.150000
    3.124486     0.439464    -0.250893     1.700000     1.150000
    4.084971     0.544748    -0.742034     1.200000     1.150000
    2.587213    -0.950307    -0.043454     1.700000     1.150000
    2.204157    -1.326175    -1.000254     1.200000     1.150000
    3.400038    -1.626681     0.228849     1.200000     1.150000
   -1.115957    -1.415764    -0.726197     1.700000     1.150000
   -0.524506    -2.313770    -0.854246     1.200000     1.150000
   -2.433841    -1.521901    -0.105946     1.700000     1.150000
   -2.840105    -2.509020     0.080013     1.200000     1.150000
   -1.503007     1.001045    -1.038660     1.700000     1.150000
   -0.887003     1.891265    -0.921479     1.200000     1.150000
   -1.985221     1.095436    -2.019831     1.200000     1.150000
   -2.587213     0.950307     0.043454     1.700000     1.150000
   -3.400038     1.626680    -0.228849     1.200000     1.150000
   -2.204158     1.326175     1.000254     1.200000     1.150000

--link1--
%chk=meso-TS_31_2_xp-110.chk
%nproc=24
%mem=48GB
#p uwb97xd guess=mix def2tzvp 
# scrf=(iefpcm,solvent=Cyclohexane,read) nosym guess=only pop=none 

endo-2
xp-pcm for eta=3

0 1
  6  -3.124486  -0.439464   0.250893 
  6  -0.647306  -0.230427  -1.105597 
  1  -4.084971  -0.544748   0.742034 
  1   0.323194  -0.137629  -1.574480 
  6   1.115957   1.415764   0.726197 
  6   0.647306   0.230427   1.105597 
  1   0.524506   2.313770   0.854246 
  1  -0.323194   0.137629   1.574480 
  6   1.503007  -1.001045   1.038660 
  1   1.985221  -1.095436   2.019831 
  1   0.887003  -1.891265   0.921479 
  6   2.433841   1.521901   0.105946 
  1   2.840105   2.509020  -0.080013 
  6   3.124486   0.439464  -0.250893 
  1   4.084971   0.544748  -0.742034 
  6   2.587213  -0.950307  -0.043454 
  1   2.204157  -1.326175  -1.000254 
  1   3.400038  -1.626681   0.228849 
  6  -1.115957  -1.415764  -0.726197 
  1  -0.524506  -2.313770  -0.854246 
  6  -2.433841  -1.521901  -0.105946 
  1  -2.840105  -2.509020   0.080013 
  6  -1.503007   1.001045  -1.038660 
  1  -0.887003   1.891265  -0.921479 
  1  -1.985221   1.095436  -2.019831 
  6  -2.587213   0.950307   0.043454 
  1  -3.400038   1.626680  -0.228849 
  1  -2.204158   1.326175   1.000254 

qrep pcmdoc geomview  nodis nocav g03defaults tsare=0.075 
nsfe=28
NVESolv=36  SolvMW=84.1595   Rsolv=2.815 
eps=2.0165 RhoS=0.7781

   -3.124486    -0.439464     0.250893     1.700000     1.100000
   -0.647306    -0.230427    -1.105597     1.700000     1.100000
   -4.084971    -0.544748     0.742034     1.200000     1.100000
    0.323194    -0.137629    -1.574480     1.200000     1.100000
    1.115957     1.415764     0.726197     1.700000     1.100000
    0.647306     0.230427     1.105597     1.700000     1.100000
    0.524506     2.313770     0.854246     1.200000     1.100000
   -0.323194     0.137629     1.574480     1.200000     1.100000
    1.503007    -1.001045     1.038660     1.700000     1.100000
    1.985221    -1.095436     2.019831     1.200000     1.100000
    0.887003    -1.891265     0.921479     1.200000     1.100000
    2.433841     1.521901     0.105946     1.700000     1.100000
    2.840105     2.509020    -0.080013     1.200000     1.100000
    3.124486     0.439464    -0.250893     1.700000     1.100000
    4.084971     0.544748    -0.742034     1.200000     1.100000
    2.587213    -0.950307    -0.043454     1.700000     1.100000
    2.204157    -1.326175    -1.000254     1.200000     1.100000
    3.400038    -1.626681     0.228849     1.200000     1.100000
   -1.115957    -1.415764    -0.726197     1.700000     1.100000
   -0.524506    -2.313770    -0.854246     1.200000     1.100000
   -2.433841    -1.521901    -0.105946     1.700000     1.100000
   -2.840105    -2.509020     0.080013     1.200000     1.100000
   -1.503007     1.001045    -1.038660     1.700000     1.100000
   -0.887003     1.891265    -0.921479     1.200000     1.100000
   -1.985221     1.095436    -2.019831     1.200000     1.100000
   -2.587213     0.950307     0.043454     1.700000     1.100000
   -3.400038     1.626680    -0.228849     1.200000     1.100000
   -2.204158     1.326175     1.000254     1.200000     1.100000

--link1--
%chk=meso-TS_31_2_xp-105.chk
%nproc=24
%mem=48GB
#p uwb97xd guess=mix def2tzvp 
# scrf=(iefpcm,solvent=Cyclohexane,read) nosym guess=only pop=none 

endo-2
xp-pcm for eta=3

0 1
  6  -3.124486  -0.439464   0.250893 
  6  -0.647306  -0.230427  -1.105597 
  1  -4.084971  -0.544748   0.742034 
  1   0.323194  -0.137629  -1.574480 
  6   1.115957   1.415764   0.726197 
  6   0.647306   0.230427   1.105597 
  1   0.524506   2.313770   0.854246 
  1  -0.323194   0.137629   1.574480 
  6   1.503007  -1.001045   1.038660 
  1   1.985221  -1.095436   2.019831 
  1   0.887003  -1.891265   0.921479 
  6   2.433841   1.521901   0.105946 
  1   2.840105   2.509020  -0.080013 
  6   3.124486   0.439464  -0.250893 
  1   4.084971   0.544748  -0.742034 
  6   2.587213  -0.950307  -0.043454 
  1   2.204157  -1.326175  -1.000254 
  1   3.400038  -1.626681   0.228849 
  6  -1.115957  -1.415764  -0.726197 
  1  -0.524506  -2.313770  -0.854246 
  6  -2.433841  -1.521901  -0.105946 
  1  -2.840105  -2.509020   0.080013 
  6  -1.503007   1.001045  -1.038660 
  1  -0.887003   1.891265  -0.921479 
  1  -1.985221   1.095436  -2.019831 
  6  -2.587213   0.950307   0.043454 
  1  -3.400038   1.626680  -0.228849 
  1  -2.204158   1.326175   1.000254 

qrep pcmdoc geomview  nodis nocav g03defaults tsare=0.075 
nsfe=28
NVESolv=36  SolvMW=84.1595   Rsolv=2.815 
eps=2.0165 RhoS=0.7781

   -3.124486    -0.439464     0.250893     1.700000     1.050000
   -0.647306    -0.230427    -1.105597     1.700000     1.050000
   -4.084971    -0.544748     0.742034     1.200000     1.050000
    0.323194    -0.137629    -1.574480     1.200000     1.050000
    1.115957     1.415764     0.726197     1.700000     1.050000
    0.647306     0.230427     1.105597     1.700000     1.050000
    0.524506     2.313770     0.854246     1.200000     1.050000
   -0.323194     0.137629     1.574480     1.200000     1.050000
    1.503007    -1.001045     1.038660     1.700000     1.050000
    1.985221    -1.095436     2.019831     1.200000     1.050000
    0.887003    -1.891265     0.921479     1.200000     1.050000
    2.433841     1.521901     0.105946     1.700000     1.050000
    2.840105     2.509020    -0.080013     1.200000     1.050000
    3.124486     0.439464    -0.250893     1.700000     1.050000
    4.084971     0.544748    -0.742034     1.200000     1.050000
    2.587213    -0.950307    -0.043454     1.700000     1.050000
    2.204157    -1.326175    -1.000254     1.200000     1.050000
    3.400038    -1.626681     0.228849     1.200000     1.050000
   -1.115957    -1.415764    -0.726197     1.700000     1.050000
   -0.524506    -2.313770    -0.854246     1.200000     1.050000
   -2.433841    -1.521901    -0.105946     1.700000     1.050000
   -2.840105    -2.509020     0.080013     1.200000     1.050000
   -1.503007     1.001045    -1.038660     1.700000     1.050000
   -0.887003     1.891265    -0.921479     1.200000     1.050000
   -1.985221     1.095436    -2.019831     1.200000     1.050000
   -2.587213     0.950307     0.043454     1.700000     1.050000
   -3.400038     1.626680    -0.228849     1.200000     1.050000
   -2.204158     1.326175     1.000254     1.200000     1.050000

--link1--
%chk=meso-TS_31_2_xp-100.chk
%nproc=24
%mem=48GB
#p uwb97xd guess=mix def2tzvp 
# scrf=(iefpcm,solvent=Cyclohexane,read) nosym guess=only pop=none 

endo-2
xp-pcm for eta=3

0 1
  6  -3.124486  -0.439464   0.250893 
  6  -0.647306  -0.230427  -1.105597 
  1  -4.084971  -0.544748   0.742034 
  1   0.323194  -0.137629  -1.574480 
  6   1.115957   1.415764   0.726197 
  6   0.647306   0.230427   1.105597 
  1   0.524506   2.313770   0.854246 
  1  -0.323194   0.137629   1.574480 
  6   1.503007  -1.001045   1.038660 
  1   1.985221  -1.095436   2.019831 
  1   0.887003  -1.891265   0.921479 
  6   2.433841   1.521901   0.105946 
  1   2.840105   2.509020  -0.080013 
  6   3.124486   0.439464  -0.250893 
  1   4.084971   0.544748  -0.742034 
  6   2.587213  -0.950307  -0.043454 
  1   2.204157  -1.326175  -1.000254 
  1   3.400038  -1.626681   0.228849 
  6  -1.115957  -1.415764  -0.726197 
  1  -0.524506  -2.313770  -0.854246 
  6  -2.433841  -1.521901  -0.105946 
  1  -2.840105  -2.509020   0.080013 
  6  -1.503007   1.001045  -1.038660 
  1  -0.887003   1.891265  -0.921479 
  1  -1.985221   1.095436  -2.019831 
  6  -2.587213   0.950307   0.043454 
  1  -3.400038   1.626680  -0.228849 
  1  -2.204158   1.326175   1.000254 

qrep pcmdoc geomview  nodis nocav g03defaults tsare=0.075 
nsfe=28
NVESolv=36  SolvMW=84.1595   Rsolv=2.815 
eps=2.0165 RhoS=0.7781

   -3.124486    -0.439464     0.250893     1.700000     1.000000
   -0.647306    -0.230427    -1.105597     1.700000     1.000000
   -4.084971    -0.544748     0.742034     1.200000     1.000000
    0.323194    -0.137629    -1.574480     1.200000     1.000000
    1.115957     1.415764     0.726197     1.700000     1.000000
    0.647306     0.230427     1.105597     1.700000     1.000000
    0.524506     2.313770     0.854246     1.200000     1.000000
   -0.323194     0.137629     1.574480     1.200000     1.000000
    1.503007    -1.001045     1.038660     1.700000     1.000000
    1.985221    -1.095436     2.019831     1.200000     1.000000
    0.887003    -1.891265     0.921479     1.200000     1.000000
    2.433841     1.521901     0.105946     1.700000     1.000000
    2.840105     2.509020    -0.080013     1.200000     1.000000
    3.124486     0.439464    -0.250893     1.700000     1.000000
    4.084971     0.544748    -0.742034     1.200000     1.000000
    2.587213    -0.950307    -0.043454     1.700000     1.000000
    2.204157    -1.326175    -1.000254     1.200000     1.000000
    3.400038    -1.626681     0.228849     1.200000     1.000000
   -1.115957    -1.415764    -0.726197     1.700000     1.000000
   -0.524506    -2.313770    -0.854246     1.200000     1.000000
   -2.433841    -1.521901    -0.105946     1.700000     1.000000
   -2.840105    -2.509020     0.080013     1.200000     1.000000
   -1.503007     1.001045    -1.038660     1.700000     1.000000
   -0.887003     1.891265    -0.921479     1.200000     1.000000
   -1.985221     1.095436    -2.019831     1.200000     1.000000
   -2.587213     0.950307     0.043454     1.700000     1.000000
   -3.400038     1.626680    -0.228849     1.200000     1.000000
   -2.204158     1.326175     1.000254     1.200000     1.000000

--link1--
%chk=meso-TS_31_2_xp-0975.chk
%nproc=24
%mem=48GB
#p uwb97xd guess=mix def2tzvp 
# scrf=(iefpcm,solvent=Cyclohexane,read) nosym guess=only pop=none 

endo-2
xp-pcm for eta=3

0 1
  6  -3.124486  -0.439464   0.250893 
  6  -0.647306  -0.230427  -1.105597 
  1  -4.084971  -0.544748   0.742034 
  1   0.323194  -0.137629  -1.574480 
  6   1.115957   1.415764   0.726197 
  6   0.647306   0.230427   1.105597 
  1   0.524506   2.313770   0.854246 
  1  -0.323194   0.137629   1.574480 
  6   1.503007  -1.001045   1.038660 
  1   1.985221  -1.095436   2.019831 
  1   0.887003  -1.891265   0.921479 
  6   2.433841   1.521901   0.105946 
  1   2.840105   2.509020  -0.080013 
  6   3.124486   0.439464  -0.250893 
  1   4.084971   0.544748  -0.742034 
  6   2.587213  -0.950307  -0.043454 
  1   2.204157  -1.326175  -1.000254 
  1   3.400038  -1.626681   0.228849 
  6  -1.115957  -1.415764  -0.726197 
  1  -0.524506  -2.313770  -0.854246 
  6  -2.433841  -1.521901  -0.105946 
  1  -2.840105  -2.509020   0.080013 
  6  -1.503007   1.001045  -1.038660 
  1  -0.887003   1.891265  -0.921479 
  1  -1.985221   1.095436  -2.019831 
  6  -2.587213   0.950307   0.043454 
  1  -3.400038   1.626680  -0.228849 
  1  -2.204158   1.326175   1.000254 

qrep pcmdoc geomview  nodis nocav g03defaults tsare=0.075 
nsfe=28
NVESolv=36  SolvMW=84.1595   Rsolv=2.815 
eps=2.0165 RhoS=0.7781

   -3.124486    -0.439464     0.250893     1.700000     0.975000
   -0.647306    -0.230427    -1.105597     1.700000     0.975000
   -4.084971    -0.544748     0.742034     1.200000     0.975000
    0.323194    -0.137629    -1.574480     1.200000     0.975000
    1.115957     1.415764     0.726197     1.700000     0.975000
    0.647306     0.230427     1.105597     1.700000     0.975000
    0.524506     2.313770     0.854246     1.200000     0.975000
   -0.323194     0.137629     1.574480     1.200000     0.975000
    1.503007    -1.001045     1.038660     1.700000     0.975000
    1.985221    -1.095436     2.019831     1.200000     0.975000
    0.887003    -1.891265     0.921479     1.200000     0.975000
    2.433841     1.521901     0.105946     1.700000     0.975000
    2.840105     2.509020    -0.080013     1.200000     0.975000
    3.124486     0.439464    -0.250893     1.700000     0.975000
    4.084971     0.544748    -0.742034     1.200000     0.975000
    2.587213    -0.950307    -0.043454     1.700000     0.975000
    2.204157    -1.326175    -1.000254     1.200000     0.975000
    3.400038    -1.626681     0.228849     1.200000     0.975000
   -1.115957    -1.415764    -0.726197     1.700000     0.975000
   -0.524506    -2.313770    -0.854246     1.200000     0.975000
   -2.433841    -1.521901    -0.105946     1.700000     0.975000
   -2.840105    -2.509020     0.080013     1.200000     0.975000
   -1.503007     1.001045    -1.038660     1.700000     0.975000
   -0.887003     1.891265    -0.921479     1.200000     0.975000
   -1.985221     1.095436    -2.019831     1.200000     0.975000
   -2.587213     0.950307     0.043454     1.700000     0.975000
   -3.400038     1.626680    -0.228849     1.200000     0.975000
   -2.204158     1.326175     1.000254     1.200000     0.975000

--link1--
%chk=meso-TS_31_2_xp-095.chk
%nproc=24
%mem=48GB
#p uwb97xd guess=mix def2tzvp 
# scrf=(iefpcm,solvent=Cyclohexane,read) nosym guess=only pop=none 

endo-2
xp-pcm for eta=3

0 1
  6  -3.124486  -0.439464   0.250893 
  6  -0.647306  -0.230427  -1.105597 
  1  -4.084971  -0.544748   0.742034 
  1   0.323194  -0.137629  -1.574480 
  6   1.115957   1.415764   0.726197 
  6   0.647306   0.230427   1.105597 
  1   0.524506   2.313770   0.854246 
  1  -0.323194   0.137629   1.574480 
  6   1.503007  -1.001045   1.038660 
  1   1.985221  -1.095436   2.019831 
  1   0.887003  -1.891265   0.921479 
  6   2.433841   1.521901   0.105946 
  1   2.840105   2.509020  -0.080013 
  6   3.124486   0.439464  -0.250893 
  1   4.084971   0.544748  -0.742034 
  6   2.587213  -0.950307  -0.043454 
  1   2.204157  -1.326175  -1.000254 
  1   3.400038  -1.626681   0.228849 
  6  -1.115957  -1.415764  -0.726197 
  1  -0.524506  -2.313770  -0.854246 
  6  -2.433841  -1.521901  -0.105946 
  1  -2.840105  -2.509020   0.080013 
  6  -1.503007   1.001045  -1.038660 
  1  -0.887003   1.891265  -0.921479 
  1  -1.985221   1.095436  -2.019831 
  6  -2.587213   0.950307   0.043454 
  1  -3.400038   1.626680  -0.228849 
  1  -2.204158   1.326175   1.000254 

qrep pcmdoc geomview  nodis nocav g03defaults tsare=0.075 
nsfe=28
NVESolv=36  SolvMW=84.1595   Rsolv=2.815 
eps=2.0165 RhoS=0.7781

   -3.124486    -0.439464     0.250893     1.700000     0.950000
   -0.647306    -0.230427    -1.105597     1.700000     0.950000
   -4.084971    -0.544748     0.742034     1.200000     0.950000
    0.323194    -0.137629    -1.574480     1.200000     0.950000
    1.115957     1.415764     0.726197     1.700000     0.950000
    0.647306     0.230427     1.105597     1.700000     0.950000
    0.524506     2.313770     0.854246     1.200000     0.950000
   -0.323194     0.137629     1.574480     1.200000     0.950000
    1.503007    -1.001045     1.038660     1.700000     0.950000
    1.985221    -1.095436     2.019831     1.200000     0.950000
    0.887003    -1.891265     0.921479     1.200000     0.950000
    2.433841     1.521901     0.105946     1.700000     0.950000
    2.840105     2.509020    -0.080013     1.200000     0.950000
    3.124486     0.439464    -0.250893     1.700000     0.950000
    4.084971     0.544748    -0.742034     1.200000     0.950000
    2.587213    -0.950307    -0.043454     1.700000     0.950000
    2.204157    -1.326175    -1.000254     1.200000     0.950000
    3.400038    -1.626681     0.228849     1.200000     0.950000
   -1.115957    -1.415764    -0.726197     1.700000     0.950000
   -0.524506    -2.313770    -0.854246     1.200000     0.950000
   -2.433841    -1.521901    -0.105946     1.700000     0.950000
   -2.840105    -2.509020     0.080013     1.200000     0.950000
   -1.503007     1.001045    -1.038660     1.700000     0.950000
   -0.887003     1.891265    -0.921479     1.200000     0.950000
   -1.985221     1.095436    -2.019831     1.200000     0.950000
   -2.587213     0.950307     0.043454     1.700000     0.950000
   -3.400038     1.626680    -0.228849     1.200000     0.950000
   -2.204158     1.326175     1.000254     1.200000     0.950000

