%nproc=24
%mem=48GB
#p uwb97xd guess=mix def2tzvp 

endo-2

0 1
  6  -3.119272  -0.424447   0.248726 
  6  -0.415683  -0.118819  -0.698470 
  1  -4.088859  -0.546185   0.715842 
  1   0.330343  -0.106557  -1.496546 
  6   1.114329   1.433763   0.659047 
  6   0.415683   0.118819   0.698470 
  1   0.574585   2.332904   0.928841 
  1  -0.330343   0.106557   1.496546 
  6   1.445453  -0.994868   0.968584 
  1   1.851585  -0.854549   1.973970 
  1   0.957233  -1.970865   0.955855 
  6   2.393629   1.531136   0.128612 
  1   2.833391   2.513854  -0.002782 
  6   3.119272   0.424447  -0.248726 
  1   4.088859   0.546185  -0.715842 
  6   2.592655  -0.960669  -0.042757 
  1   2.251976  -1.364406  -1.005767 
  1   3.399790  -1.624841   0.278070 
  6  -1.114329  -1.433763  -0.659047 
  1  -0.574585  -2.332904  -0.928841 
  6  -2.393629  -1.531136  -0.128612 
  1  -2.833391  -2.513854   0.002782 
  6  -1.445453   0.994868  -0.968584 
  1  -0.957233   1.970865  -0.955855 
  1  -1.851585   0.854549  -1.973970 
  6  -2.592655   0.960669   0.042757 
  1  -3.399790   1.624842  -0.278070 
  1  -2.251976   1.364406   1.005767 

