%chk=meso-TS_43_2_xp-12.chk
%nproc=24
%mem=48GB
#p uwb97xd guess=mix def2tzvp 
# scrf=(iefpcm,solvent=Cyclohexane,read) nosym guess=only pop=none 

endo-2
xp-pcm for eta=3

0 1
  6  -3.127383  -0.441200   0.256946 
  6  -0.696508  -0.242696  -1.184341 
  1  -4.079078  -0.538518   0.766502 
  1   0.264362  -0.155913  -1.675481 
  6   1.144636   1.421194   0.762509 
  6   0.696508   0.242696   1.184341 
  1   0.551234   2.317867   0.893879 
  1  -0.264362   0.155913   1.675481 
  6   1.535929  -0.997742   1.081645 
  1   2.043151  -1.124317   2.046516 
  1   0.898815  -1.873600   0.960552 
  6   2.446597   1.527191   0.105512 
  1   2.848349   2.513477  -0.093966 
  6   3.127383   0.441200  -0.256946 
  1   4.079078   0.538518  -0.766502 
  6   2.581145  -0.943485  -0.038369 
  1   2.150037  -1.298130  -0.982721 
  1   3.394647  -1.635414   0.188466 
  6  -1.144636  -1.421194  -0.762509 
  1  -0.551234  -2.317867  -0.893879 
  6  -2.446597  -1.527191  -0.105512 
  1  -2.848349  -2.513477   0.093966 
  6  -1.535929   0.997742  -1.081645 
  1  -0.898815   1.873600  -0.960552 
  1  -2.043151   1.124317  -2.046516 
  6  -2.581145   0.943485   0.038369 
  1  -3.394647   1.635414  -0.188467 
  1  -2.150037   1.298130   0.982721 

qrep pcmdoc geomview  nodis nocav g03defaults tsare=0.075 
nsfe=28
NVESolv=36  SolvMW=84.1595   Rsolv=2.815 
eps=2.0165 RhoS=0.7781

   -3.127383    -0.441200     0.256946     1.700000     1.200000
   -0.696508    -0.242696    -1.184341     1.700000     1.200000
   -4.079078    -0.538518     0.766502     1.200000     1.200000
    0.264362    -0.155913    -1.675481     1.200000     1.200000
    1.144636     1.421194     0.762509     1.700000     1.200000
    0.696508     0.242696     1.184341     1.700000     1.200000
    0.551234     2.317867     0.893879     1.200000     1.200000
   -0.264362     0.155913     1.675481     1.200000     1.200000
    1.535929    -0.997742     1.081645     1.700000     1.200000
    2.043151    -1.124317     2.046516     1.200000     1.200000
    0.898815    -1.873600     0.960552     1.200000     1.200000
    2.446597     1.527191     0.105512     1.700000     1.200000
    2.848349     2.513477    -0.093966     1.200000     1.200000
    3.127383     0.441200    -0.256946     1.700000     1.200000
    4.079078     0.538518    -0.766502     1.200000     1.200000
    2.581145    -0.943485    -0.038369     1.700000     1.200000
    2.150037    -1.298130    -0.982721     1.200000     1.200000
    3.394647    -1.635414     0.188466     1.200000     1.200000
   -1.144636    -1.421194    -0.762509     1.700000     1.200000
   -0.551234    -2.317867    -0.893879     1.200000     1.200000
   -2.446597    -1.527191    -0.105512     1.700000     1.200000
   -2.848349    -2.513477     0.093966     1.200000     1.200000
   -1.535929     0.997742    -1.081645     1.700000     1.200000
   -0.898815     1.873600    -0.960552     1.200000     1.200000
   -2.043151     1.124317    -2.046516     1.200000     1.200000
   -2.581145     0.943485     0.038369     1.700000     1.200000
   -3.394647     1.635414    -0.188467     1.200000     1.200000
   -2.150037     1.298130     0.982721     1.200000     1.200000

--link1--
%chk=meso-TS_43_2_xp-115.chk
%nproc=24
%mem=48GB
#p uwb97xd guess=mix def2tzvp 
# scrf=(iefpcm,solvent=Cyclohexane,read) nosym guess=only pop=none 

endo-2
xp-pcm for eta=3

0 1
  6  -3.127383  -0.441200   0.256946 
  6  -0.696508  -0.242696  -1.184341 
  1  -4.079078  -0.538518   0.766502 
  1   0.264362  -0.155913  -1.675481 
  6   1.144636   1.421194   0.762509 
  6   0.696508   0.242696   1.184341 
  1   0.551234   2.317867   0.893879 
  1  -0.264362   0.155913   1.675481 
  6   1.535929  -0.997742   1.081645 
  1   2.043151  -1.124317   2.046516 
  1   0.898815  -1.873600   0.960552 
  6   2.446597   1.527191   0.105512 
  1   2.848349   2.513477  -0.093966 
  6   3.127383   0.441200  -0.256946 
  1   4.079078   0.538518  -0.766502 
  6   2.581145  -0.943485  -0.038369 
  1   2.150037  -1.298130  -0.982721 
  1   3.394647  -1.635414   0.188466 
  6  -1.144636  -1.421194  -0.762509 
  1  -0.551234  -2.317867  -0.893879 
  6  -2.446597  -1.527191  -0.105512 
  1  -2.848349  -2.513477   0.093966 
  6  -1.535929   0.997742  -1.081645 
  1  -0.898815   1.873600  -0.960552 
  1  -2.043151   1.124317  -2.046516 
  6  -2.581145   0.943485   0.038369 
  1  -3.394647   1.635414  -0.188467 
  1  -2.150037   1.298130   0.982721 

qrep pcmdoc geomview  nodis nocav g03defaults tsare=0.075 
nsfe=28
NVESolv=36  SolvMW=84.1595   Rsolv=2.815 
eps=2.0165 RhoS=0.7781

   -3.127383    -0.441200     0.256946     1.700000     1.150000
   -0.696508    -0.242696    -1.184341     1.700000     1.150000
   -4.079078    -0.538518     0.766502     1.200000     1.150000
    0.264362    -0.155913    -1.675481     1.200000     1.150000
    1.144636     1.421194     0.762509     1.700000     1.150000
    0.696508     0.242696     1.184341     1.700000     1.150000
    0.551234     2.317867     0.893879     1.200000     1.150000
   -0.264362     0.155913     1.675481     1.200000     1.150000
    1.535929    -0.997742     1.081645     1.700000     1.150000
    2.043151    -1.124317     2.046516     1.200000     1.150000
    0.898815    -1.873600     0.960552     1.200000     1.150000
    2.446597     1.527191     0.105512     1.700000     1.150000
    2.848349     2.513477    -0.093966     1.200000     1.150000
    3.127383     0.441200    -0.256946     1.700000     1.150000
    4.079078     0.538518    -0.766502     1.200000     1.150000
    2.581145    -0.943485    -0.038369     1.700000     1.150000
    2.150037    -1.298130    -0.982721     1.200000     1.150000
    3.394647    -1.635414     0.188466     1.200000     1.150000
   -1.144636    -1.421194    -0.762509     1.700000     1.150000
   -0.551234    -2.317867    -0.893879     1.200000     1.150000
   -2.446597    -1.527191    -0.105512     1.700000     1.150000
   -2.848349    -2.513477     0.093966     1.200000     1.150000
   -1.535929     0.997742    -1.081645     1.700000     1.150000
   -0.898815     1.873600    -0.960552     1.200000     1.150000
   -2.043151     1.124317    -2.046516     1.200000     1.150000
   -2.581145     0.943485     0.038369     1.700000     1.150000
   -3.394647     1.635414    -0.188467     1.200000     1.150000
   -2.150037     1.298130     0.982721     1.200000     1.150000

--link1--
%chk=meso-TS_43_2_xp-110.chk
%nproc=24
%mem=48GB
#p uwb97xd guess=mix def2tzvp 
# scrf=(iefpcm,solvent=Cyclohexane,read) nosym guess=only pop=none 

endo-2
xp-pcm for eta=3

0 1
  6  -3.127383  -0.441200   0.256946 
  6  -0.696508  -0.242696  -1.184341 
  1  -4.079078  -0.538518   0.766502 
  1   0.264362  -0.155913  -1.675481 
  6   1.144636   1.421194   0.762509 
  6   0.696508   0.242696   1.184341 
  1   0.551234   2.317867   0.893879 
  1  -0.264362   0.155913   1.675481 
  6   1.535929  -0.997742   1.081645 
  1   2.043151  -1.124317   2.046516 
  1   0.898815  -1.873600   0.960552 
  6   2.446597   1.527191   0.105512 
  1   2.848349   2.513477  -0.093966 
  6   3.127383   0.441200  -0.256946 
  1   4.079078   0.538518  -0.766502 
  6   2.581145  -0.943485  -0.038369 
  1   2.150037  -1.298130  -0.982721 
  1   3.394647  -1.635414   0.188466 
  6  -1.144636  -1.421194  -0.762509 
  1  -0.551234  -2.317867  -0.893879 
  6  -2.446597  -1.527191  -0.105512 
  1  -2.848349  -2.513477   0.093966 
  6  -1.535929   0.997742  -1.081645 
  1  -0.898815   1.873600  -0.960552 
  1  -2.043151   1.124317  -2.046516 
  6  -2.581145   0.943485   0.038369 
  1  -3.394647   1.635414  -0.188467 
  1  -2.150037   1.298130   0.982721 

qrep pcmdoc geomview  nodis nocav g03defaults tsare=0.075 
nsfe=28
NVESolv=36  SolvMW=84.1595   Rsolv=2.815 
eps=2.0165 RhoS=0.7781

   -3.127383    -0.441200     0.256946     1.700000     1.100000
   -0.696508    -0.242696    -1.184341     1.700000     1.100000
   -4.079078    -0.538518     0.766502     1.200000     1.100000
    0.264362    -0.155913    -1.675481     1.200000     1.100000
    1.144636     1.421194     0.762509     1.700000     1.100000
    0.696508     0.242696     1.184341     1.700000     1.100000
    0.551234     2.317867     0.893879     1.200000     1.100000
   -0.264362     0.155913     1.675481     1.200000     1.100000
    1.535929    -0.997742     1.081645     1.700000     1.100000
    2.043151    -1.124317     2.046516     1.200000     1.100000
    0.898815    -1.873600     0.960552     1.200000     1.100000
    2.446597     1.527191     0.105512     1.700000     1.100000
    2.848349     2.513477    -0.093966     1.200000     1.100000
    3.127383     0.441200    -0.256946     1.700000     1.100000
    4.079078     0.538518    -0.766502     1.200000     1.100000
    2.581145    -0.943485    -0.038369     1.700000     1.100000
    2.150037    -1.298130    -0.982721     1.200000     1.100000
    3.394647    -1.635414     0.188466     1.200000     1.100000
   -1.144636    -1.421194    -0.762509     1.700000     1.100000
   -0.551234    -2.317867    -0.893879     1.200000     1.100000
   -2.446597    -1.527191    -0.105512     1.700000     1.100000
   -2.848349    -2.513477     0.093966     1.200000     1.100000
   -1.535929     0.997742    -1.081645     1.700000     1.100000
   -0.898815     1.873600    -0.960552     1.200000     1.100000
   -2.043151     1.124317    -2.046516     1.200000     1.100000
   -2.581145     0.943485     0.038369     1.700000     1.100000
   -3.394647     1.635414    -0.188467     1.200000     1.100000
   -2.150037     1.298130     0.982721     1.200000     1.100000

--link1--
%chk=meso-TS_43_2_xp-105.chk
%nproc=24
%mem=48GB
#p uwb97xd guess=mix def2tzvp 
# scrf=(iefpcm,solvent=Cyclohexane,read) nosym guess=only pop=none 

endo-2
xp-pcm for eta=3

0 1
  6  -3.127383  -0.441200   0.256946 
  6  -0.696508  -0.242696  -1.184341 
  1  -4.079078  -0.538518   0.766502 
  1   0.264362  -0.155913  -1.675481 
  6   1.144636   1.421194   0.762509 
  6   0.696508   0.242696   1.184341 
  1   0.551234   2.317867   0.893879 
  1  -0.264362   0.155913   1.675481 
  6   1.535929  -0.997742   1.081645 
  1   2.043151  -1.124317   2.046516 
  1   0.898815  -1.873600   0.960552 
  6   2.446597   1.527191   0.105512 
  1   2.848349   2.513477  -0.093966 
  6   3.127383   0.441200  -0.256946 
  1   4.079078   0.538518  -0.766502 
  6   2.581145  -0.943485  -0.038369 
  1   2.150037  -1.298130  -0.982721 
  1   3.394647  -1.635414   0.188466 
  6  -1.144636  -1.421194  -0.762509 
  1  -0.551234  -2.317867  -0.893879 
  6  -2.446597  -1.527191  -0.105512 
  1  -2.848349  -2.513477   0.093966 
  6  -1.535929   0.997742  -1.081645 
  1  -0.898815   1.873600  -0.960552 
  1  -2.043151   1.124317  -2.046516 
  6  -2.581145   0.943485   0.038369 
  1  -3.394647   1.635414  -0.188467 
  1  -2.150037   1.298130   0.982721 

qrep pcmdoc geomview  nodis nocav g03defaults tsare=0.075 
nsfe=28
NVESolv=36  SolvMW=84.1595   Rsolv=2.815 
eps=2.0165 RhoS=0.7781

   -3.127383    -0.441200     0.256946     1.700000     1.050000
   -0.696508    -0.242696    -1.184341     1.700000     1.050000
   -4.079078    -0.538518     0.766502     1.200000     1.050000
    0.264362    -0.155913    -1.675481     1.200000     1.050000
    1.144636     1.421194     0.762509     1.700000     1.050000
    0.696508     0.242696     1.184341     1.700000     1.050000
    0.551234     2.317867     0.893879     1.200000     1.050000
   -0.264362     0.155913     1.675481     1.200000     1.050000
    1.535929    -0.997742     1.081645     1.700000     1.050000
    2.043151    -1.124317     2.046516     1.200000     1.050000
    0.898815    -1.873600     0.960552     1.200000     1.050000
    2.446597     1.527191     0.105512     1.700000     1.050000
    2.848349     2.513477    -0.093966     1.200000     1.050000
    3.127383     0.441200    -0.256946     1.700000     1.050000
    4.079078     0.538518    -0.766502     1.200000     1.050000
    2.581145    -0.943485    -0.038369     1.700000     1.050000
    2.150037    -1.298130    -0.982721     1.200000     1.050000
    3.394647    -1.635414     0.188466     1.200000     1.050000
   -1.144636    -1.421194    -0.762509     1.700000     1.050000
   -0.551234    -2.317867    -0.893879     1.200000     1.050000
   -2.446597    -1.527191    -0.105512     1.700000     1.050000
   -2.848349    -2.513477     0.093966     1.200000     1.050000
   -1.535929     0.997742    -1.081645     1.700000     1.050000
   -0.898815     1.873600    -0.960552     1.200000     1.050000
   -2.043151     1.124317    -2.046516     1.200000     1.050000
   -2.581145     0.943485     0.038369     1.700000     1.050000
   -3.394647     1.635414    -0.188467     1.200000     1.050000
   -2.150037     1.298130     0.982721     1.200000     1.050000

--link1--
%chk=meso-TS_43_2_xp-100.chk
%nproc=24
%mem=48GB
#p uwb97xd guess=mix def2tzvp 
# scrf=(iefpcm,solvent=Cyclohexane,read) nosym guess=only pop=none 

endo-2
xp-pcm for eta=3

0 1
  6  -3.127383  -0.441200   0.256946 
  6  -0.696508  -0.242696  -1.184341 
  1  -4.079078  -0.538518   0.766502 
  1   0.264362  -0.155913  -1.675481 
  6   1.144636   1.421194   0.762509 
  6   0.696508   0.242696   1.184341 
  1   0.551234   2.317867   0.893879 
  1  -0.264362   0.155913   1.675481 
  6   1.535929  -0.997742   1.081645 
  1   2.043151  -1.124317   2.046516 
  1   0.898815  -1.873600   0.960552 
  6   2.446597   1.527191   0.105512 
  1   2.848349   2.513477  -0.093966 
  6   3.127383   0.441200  -0.256946 
  1   4.079078   0.538518  -0.766502 
  6   2.581145  -0.943485  -0.038369 
  1   2.150037  -1.298130  -0.982721 
  1   3.394647  -1.635414   0.188466 
  6  -1.144636  -1.421194  -0.762509 
  1  -0.551234  -2.317867  -0.893879 
  6  -2.446597  -1.527191  -0.105512 
  1  -2.848349  -2.513477   0.093966 
  6  -1.535929   0.997742  -1.081645 
  1  -0.898815   1.873600  -0.960552 
  1  -2.043151   1.124317  -2.046516 
  6  -2.581145   0.943485   0.038369 
  1  -3.394647   1.635414  -0.188467 
  1  -2.150037   1.298130   0.982721 

qrep pcmdoc geomview  nodis nocav g03defaults tsare=0.075 
nsfe=28
NVESolv=36  SolvMW=84.1595   Rsolv=2.815 
eps=2.0165 RhoS=0.7781

   -3.127383    -0.441200     0.256946     1.700000     1.000000
   -0.696508    -0.242696    -1.184341     1.700000     1.000000
   -4.079078    -0.538518     0.766502     1.200000     1.000000
    0.264362    -0.155913    -1.675481     1.200000     1.000000
    1.144636     1.421194     0.762509     1.700000     1.000000
    0.696508     0.242696     1.184341     1.700000     1.000000
    0.551234     2.317867     0.893879     1.200000     1.000000
   -0.264362     0.155913     1.675481     1.200000     1.000000
    1.535929    -0.997742     1.081645     1.700000     1.000000
    2.043151    -1.124317     2.046516     1.200000     1.000000
    0.898815    -1.873600     0.960552     1.200000     1.000000
    2.446597     1.527191     0.105512     1.700000     1.000000
    2.848349     2.513477    -0.093966     1.200000     1.000000
    3.127383     0.441200    -0.256946     1.700000     1.000000
    4.079078     0.538518    -0.766502     1.200000     1.000000
    2.581145    -0.943485    -0.038369     1.700000     1.000000
    2.150037    -1.298130    -0.982721     1.200000     1.000000
    3.394647    -1.635414     0.188466     1.200000     1.000000
   -1.144636    -1.421194    -0.762509     1.700000     1.000000
   -0.551234    -2.317867    -0.893879     1.200000     1.000000
   -2.446597    -1.527191    -0.105512     1.700000     1.000000
   -2.848349    -2.513477     0.093966     1.200000     1.000000
   -1.535929     0.997742    -1.081645     1.700000     1.000000
   -0.898815     1.873600    -0.960552     1.200000     1.000000
   -2.043151     1.124317    -2.046516     1.200000     1.000000
   -2.581145     0.943485     0.038369     1.700000     1.000000
   -3.394647     1.635414    -0.188467     1.200000     1.000000
   -2.150037     1.298130     0.982721     1.200000     1.000000

--link1--
%chk=meso-TS_43_2_xp-0975.chk
%nproc=24
%mem=48GB
#p uwb97xd guess=mix def2tzvp 
# scrf=(iefpcm,solvent=Cyclohexane,read) nosym guess=only pop=none 

endo-2
xp-pcm for eta=3

0 1
  6  -3.127383  -0.441200   0.256946 
  6  -0.696508  -0.242696  -1.184341 
  1  -4.079078  -0.538518   0.766502 
  1   0.264362  -0.155913  -1.675481 
  6   1.144636   1.421194   0.762509 
  6   0.696508   0.242696   1.184341 
  1   0.551234   2.317867   0.893879 
  1  -0.264362   0.155913   1.675481 
  6   1.535929  -0.997742   1.081645 
  1   2.043151  -1.124317   2.046516 
  1   0.898815  -1.873600   0.960552 
  6   2.446597   1.527191   0.105512 
  1   2.848349   2.513477  -0.093966 
  6   3.127383   0.441200  -0.256946 
  1   4.079078   0.538518  -0.766502 
  6   2.581145  -0.943485  -0.038369 
  1   2.150037  -1.298130  -0.982721 
  1   3.394647  -1.635414   0.188466 
  6  -1.144636  -1.421194  -0.762509 
  1  -0.551234  -2.317867  -0.893879 
  6  -2.446597  -1.527191  -0.105512 
  1  -2.848349  -2.513477   0.093966 
  6  -1.535929   0.997742  -1.081645 
  1  -0.898815   1.873600  -0.960552 
  1  -2.043151   1.124317  -2.046516 
  6  -2.581145   0.943485   0.038369 
  1  -3.394647   1.635414  -0.188467 
  1  -2.150037   1.298130   0.982721 

qrep pcmdoc geomview  nodis nocav g03defaults tsare=0.075 
nsfe=28
NVESolv=36  SolvMW=84.1595   Rsolv=2.815 
eps=2.0165 RhoS=0.7781

   -3.127383    -0.441200     0.256946     1.700000     0.975000
   -0.696508    -0.242696    -1.184341     1.700000     0.975000
   -4.079078    -0.538518     0.766502     1.200000     0.975000
    0.264362    -0.155913    -1.675481     1.200000     0.975000
    1.144636     1.421194     0.762509     1.700000     0.975000
    0.696508     0.242696     1.184341     1.700000     0.975000
    0.551234     2.317867     0.893879     1.200000     0.975000
   -0.264362     0.155913     1.675481     1.200000     0.975000
    1.535929    -0.997742     1.081645     1.700000     0.975000
    2.043151    -1.124317     2.046516     1.200000     0.975000
    0.898815    -1.873600     0.960552     1.200000     0.975000
    2.446597     1.527191     0.105512     1.700000     0.975000
    2.848349     2.513477    -0.093966     1.200000     0.975000
    3.127383     0.441200    -0.256946     1.700000     0.975000
    4.079078     0.538518    -0.766502     1.200000     0.975000
    2.581145    -0.943485    -0.038369     1.700000     0.975000
    2.150037    -1.298130    -0.982721     1.200000     0.975000
    3.394647    -1.635414     0.188466     1.200000     0.975000
   -1.144636    -1.421194    -0.762509     1.700000     0.975000
   -0.551234    -2.317867    -0.893879     1.200000     0.975000
   -2.446597    -1.527191    -0.105512     1.700000     0.975000
   -2.848349    -2.513477     0.093966     1.200000     0.975000
   -1.535929     0.997742    -1.081645     1.700000     0.975000
   -0.898815     1.873600    -0.960552     1.200000     0.975000
   -2.043151     1.124317    -2.046516     1.200000     0.975000
   -2.581145     0.943485     0.038369     1.700000     0.975000
   -3.394647     1.635414    -0.188467     1.200000     0.975000
   -2.150037     1.298130     0.982721     1.200000     0.975000

--link1--
%chk=meso-TS_43_2_xp-095.chk
%nproc=24
%mem=48GB
#p uwb97xd guess=mix def2tzvp 
# scrf=(iefpcm,solvent=Cyclohexane,read) nosym guess=only pop=none 

endo-2
xp-pcm for eta=3

0 1
  6  -3.127383  -0.441200   0.256946 
  6  -0.696508  -0.242696  -1.184341 
  1  -4.079078  -0.538518   0.766502 
  1   0.264362  -0.155913  -1.675481 
  6   1.144636   1.421194   0.762509 
  6   0.696508   0.242696   1.184341 
  1   0.551234   2.317867   0.893879 
  1  -0.264362   0.155913   1.675481 
  6   1.535929  -0.997742   1.081645 
  1   2.043151  -1.124317   2.046516 
  1   0.898815  -1.873600   0.960552 
  6   2.446597   1.527191   0.105512 
  1   2.848349   2.513477  -0.093966 
  6   3.127383   0.441200  -0.256946 
  1   4.079078   0.538518  -0.766502 
  6   2.581145  -0.943485  -0.038369 
  1   2.150037  -1.298130  -0.982721 
  1   3.394647  -1.635414   0.188466 
  6  -1.144636  -1.421194  -0.762509 
  1  -0.551234  -2.317867  -0.893879 
  6  -2.446597  -1.527191  -0.105512 
  1  -2.848349  -2.513477   0.093966 
  6  -1.535929   0.997742  -1.081645 
  1  -0.898815   1.873600  -0.960552 
  1  -2.043151   1.124317  -2.046516 
  6  -2.581145   0.943485   0.038369 
  1  -3.394647   1.635414  -0.188467 
  1  -2.150037   1.298130   0.982721 

qrep pcmdoc geomview  nodis nocav g03defaults tsare=0.075 
nsfe=28
NVESolv=36  SolvMW=84.1595   Rsolv=2.815 
eps=2.0165 RhoS=0.7781

   -3.127383    -0.441200     0.256946     1.700000     0.950000
   -0.696508    -0.242696    -1.184341     1.700000     0.950000
   -4.079078    -0.538518     0.766502     1.200000     0.950000
    0.264362    -0.155913    -1.675481     1.200000     0.950000
    1.144636     1.421194     0.762509     1.700000     0.950000
    0.696508     0.242696     1.184341     1.700000     0.950000
    0.551234     2.317867     0.893879     1.200000     0.950000
   -0.264362     0.155913     1.675481     1.200000     0.950000
    1.535929    -0.997742     1.081645     1.700000     0.950000
    2.043151    -1.124317     2.046516     1.200000     0.950000
    0.898815    -1.873600     0.960552     1.200000     0.950000
    2.446597     1.527191     0.105512     1.700000     0.950000
    2.848349     2.513477    -0.093966     1.200000     0.950000
    3.127383     0.441200    -0.256946     1.700000     0.950000
    4.079078     0.538518    -0.766502     1.200000     0.950000
    2.581145    -0.943485    -0.038369     1.700000     0.950000
    2.150037    -1.298130    -0.982721     1.200000     0.950000
    3.394647    -1.635414     0.188466     1.200000     0.950000
   -1.144636    -1.421194    -0.762509     1.700000     0.950000
   -0.551234    -2.317867    -0.893879     1.200000     0.950000
   -2.446597    -1.527191    -0.105512     1.700000     0.950000
   -2.848349    -2.513477     0.093966     1.200000     0.950000
   -1.535929     0.997742    -1.081645     1.700000     0.950000
   -0.898815     1.873600    -0.960552     1.200000     0.950000
   -2.043151     1.124317    -2.046516     1.200000     0.950000
   -2.581145     0.943485     0.038369     1.700000     0.950000
   -3.394647     1.635414    -0.188467     1.200000     0.950000
   -2.150037     1.298130     0.982721     1.200000     0.950000

