%nproc=24
%mem=48GB
#p uwb97xd guess=mix def2tzvp 

endo-2

0 1
  6  -3.119714  -0.427354   0.248138 
  6  -0.457615  -0.136883  -0.775191 
  1  -4.085798  -0.547519   0.723086 
  1   0.334210  -0.112399  -1.522897 
  6   1.114514   1.429797   0.673725 
  6   0.457615   0.136883   0.775191 
  1   0.560106   2.330952   0.903054 
  1  -0.334210   0.112399   1.522897 
  6   1.458104  -0.998939   0.983516 
  1   1.884815  -0.909059   1.987225 
  1   0.942830  -1.959865   0.945055 
  6   2.398423   1.527818   0.122829 
  1   2.825509   2.512173  -0.033288 
  6   3.119714   0.427354  -0.248138 
  1   4.085798   0.547519  -0.723086 
  6   2.592748  -0.959172  -0.042625 
  1   2.246191  -1.358493  -1.004906 
  1   3.401613  -1.624354   0.270841 
  6  -1.114514  -1.429797  -0.673725 
  1  -0.560106  -2.330952  -0.903054 
  6  -2.398423  -1.527818  -0.122829 
  1  -2.825509  -2.512173   0.033288 
  6  -1.458104   0.998939  -0.983516 
  1  -0.942830   1.959865  -0.945055 
  1  -1.884815   0.909059  -1.987225 
  6  -2.592748   0.959172   0.042625 
  1  -3.401613   1.624354  -0.270841 
  1  -2.246190   1.358493   1.004906 

