%nproc=24
%mem=48GB
#p uwb97xd guess=mix def2tzvp 

endo-2

0 1
  6  -3.121942  -0.439924   0.277771 
  6  -0.797162  -0.267484  -1.333299 
  1  -4.044520  -0.521623   0.840727 
  1   0.132617  -0.192479  -1.884118 
  6   1.213684   1.436717   0.855014 
  6   0.797162   0.267484   1.333299 
  1   0.625474   2.334691   1.002965 
  1  -0.132617   0.192479   1.884118 
  6   1.625967  -0.975882   1.184356 
  1   2.219247  -1.095182   2.100353 
  1   0.977773  -1.851608   1.125614 
  6   2.478853   1.534377   0.125170 
  1   2.879166   2.517204  -0.093218 
  6   3.121942   0.439924  -0.277771 
  1   4.044520   0.521623  -0.840727 
  6   2.555680  -0.931899  -0.031548 
  1   2.009120  -1.243493  -0.930088 
  1   3.361336  -1.657785   0.093053 
  6  -1.213684  -1.436717  -0.855014 
  1  -0.625474  -2.334691  -1.002965 
  6  -2.478853  -1.534377  -0.125170 
  1  -2.879166  -2.517204   0.093218 
  6  -1.625967   0.975882  -1.184356 
  1  -0.977773   1.851608  -1.125614 
  1  -2.219247   1.095182  -2.100353 
  6  -2.555680   0.931899   0.031548 
  1  -3.361336   1.657785  -0.093053 
  1  -2.009120   1.243493   0.930088 

