%nproc=24
%mem=48GB
#p uwb97xd guess=mix def2tzvp 

endo-2

0 1
  6  -3.118731  -0.439237   0.281855 
  6  -0.815081  -0.272569  -1.359714 
  1  -4.035417  -0.517912   0.854757 
  1   0.108150  -0.199859  -1.921885 
  6   1.226373   1.440262   0.872798 
  6   0.815081   0.272569   1.359714 
  1   0.640360   2.339008   1.024882 
  1  -0.108150   0.199859   1.921885 
  6   1.642235  -0.971044   1.202532 
  1   2.252970  -1.085949   2.107665 
  1   0.994067  -1.847777   1.158659 
  6   2.484198   1.535467   0.129837 
  1   2.885316   2.517388  -0.091107 
  6   3.118731   0.439237  -0.281855 
  1   4.035417   0.517912  -0.854757 
  6   2.548027  -0.929829  -0.030887 
  1   1.979824  -1.232486  -0.918993 
  1   3.350280  -1.662435   0.074462 
  6  -1.226373  -1.440262  -0.872798 
  1  -0.640360  -2.339008  -1.024882 
  6  -2.484198  -1.535467  -0.129837 
  1  -2.885316  -2.517388   0.091107 
  6  -1.642235   0.971044  -1.202532 
  1  -0.994067   1.847777  -1.158659 
  1  -2.252970   1.085949  -2.107665 
  6  -2.548027   0.929829   0.030887 
  1  -3.350280   1.662435  -0.074462 
  1  -1.979824   1.232486   0.918993 

