%nproc=24
%mem=48GB
#p uwb97xd guess=mix def2tzvp 

endo-2

0 1
  6  -3.127239  -0.441106   0.256315 
  6  -0.692495  -0.241731  -1.178172 
  1  -4.079835  -0.539065   0.764063 
  1   0.269483  -0.154395  -1.666941 
  6   1.142123   1.420705   0.759273 
  6   0.692495   0.241731   1.178172 
  1   0.548709   2.317423   0.890066 
  1  -0.269483   0.154395   1.666941 
  6   1.532972  -0.998190   1.077941 
  1   2.037866  -1.123004   2.044259 
  1   0.897385  -1.875000   0.956540 
  6   2.445459   1.526799   0.105294 
  1   2.847544   2.513166  -0.093126 
  6   3.127239   0.441106  -0.256315 
  1   4.079835   0.539065  -0.764063 
  6   2.581719  -0.944020  -0.038782 
  1   2.154744  -1.300343  -0.984385 
  1   3.395249  -1.634672   0.191862 
  6  -1.142123  -1.420705  -0.759273 
  1  -0.548709  -2.317423  -0.890066 
  6  -2.445459  -1.526799  -0.105294 
  1  -2.847544  -2.513166   0.093126 
  6  -1.532972   0.998190  -1.077941 
  1  -0.897385   1.875000  -0.956540 
  1  -2.037866   1.123004  -2.044259 
  6  -2.581719   0.944020   0.038782 
  1  -3.395249   1.634672  -0.191862 
  1  -2.154744   1.300343   0.984385 

