%chk=meso-TS_82_2_xp-12.chk
%nproc=24
%mem=48GB
#p uwb97xd guess=mix def2tzvp 
# scrf=(iefpcm,solvent=Cyclohexane,read) nosym guess=only pop=none 

endo-2
xp-pcm for eta=3

0 1
  6  -3.111354  -0.438024   0.288476 
  6  -0.838887  -0.280035  -1.396455 
  1  -4.018848  -0.512178   0.876391 
  1   0.074286  -0.210856  -1.975395 
  6   1.243587   1.445746   0.898709 
  6   0.838887   0.280035   1.396455 
  1   0.661682   2.345979   1.057759 
  1  -0.074286   0.210856   1.975395 
  6   1.663200  -0.964107   1.227344 
  1   2.298573  -1.072496   2.116318 
  1   1.015835  -1.842319   1.205078 
  6   2.490124   1.536957   0.136281 
  1   2.892627   2.517404  -0.088621 
  6   3.111354   0.438024  -0.288476 
  1   4.018848   0.512178  -0.876391 
  6   2.534434  -0.926987  -0.030159 
  1   1.936253  -1.217234  -0.902586 
  1   3.331183  -1.668816   0.048441 
  6  -1.243587  -1.445746  -0.898709 
  1  -0.661682  -2.345979  -1.057759 
  6  -2.490124  -1.536957  -0.136281 
  1  -2.892627  -2.517404   0.088621 
  6  -1.663200   0.964107  -1.227344 
  1  -1.015835   1.842319  -1.205078 
  1  -2.298573   1.072496  -2.116318 
  6  -2.534434   0.926987   0.030159 
  1  -3.331183   1.668816  -0.048441 
  1  -1.936253   1.217234   0.902586 

qrep pcmdoc geomview  nodis nocav g03defaults tsare=0.075 
nsfe=28
NVESolv=36  SolvMW=84.1595   Rsolv=2.815 
eps=2.0165 RhoS=0.7781

   -3.111354    -0.438024     0.288476     1.700000     1.200000
   -0.838887    -0.280035    -1.396455     1.700000     1.200000
   -4.018848    -0.512178     0.876391     1.200000     1.200000
    0.074286    -0.210856    -1.975395     1.200000     1.200000
    1.243587     1.445746     0.898709     1.700000     1.200000
    0.838887     0.280035     1.396455     1.700000     1.200000
    0.661682     2.345979     1.057759     1.200000     1.200000
   -0.074286     0.210856     1.975395     1.200000     1.200000
    1.663200    -0.964107     1.227344     1.700000     1.200000
    2.298573    -1.072496     2.116318     1.200000     1.200000
    1.015835    -1.842319     1.205078     1.200000     1.200000
    2.490124     1.536957     0.136281     1.700000     1.200000
    2.892627     2.517404    -0.088621     1.200000     1.200000
    3.111354     0.438024    -0.288476     1.700000     1.200000
    4.018848     0.512178    -0.876391     1.200000     1.200000
    2.534434    -0.926987    -0.030159     1.700000     1.200000
    1.936253    -1.217234    -0.902586     1.200000     1.200000
    3.331183    -1.668816     0.048441     1.200000     1.200000
   -1.243587    -1.445746    -0.898709     1.700000     1.200000
   -0.661682    -2.345979    -1.057759     1.200000     1.200000
   -2.490124    -1.536957    -0.136281     1.700000     1.200000
   -2.892627    -2.517404     0.088621     1.200000     1.200000
   -1.663200     0.964107    -1.227344     1.700000     1.200000
   -1.015835     1.842319    -1.205078     1.200000     1.200000
   -2.298573     1.072496    -2.116318     1.200000     1.200000
   -2.534434     0.926987     0.030159     1.700000     1.200000
   -3.331183     1.668816    -0.048441     1.200000     1.200000
   -1.936253     1.217234     0.902586     1.200000     1.200000

--link1--
%chk=meso-TS_82_2_xp-115.chk
%nproc=24
%mem=48GB
#p uwb97xd guess=mix def2tzvp 
# scrf=(iefpcm,solvent=Cyclohexane,read) nosym guess=only pop=none 

endo-2
xp-pcm for eta=3

0 1
  6  -3.111354  -0.438024   0.288476 
  6  -0.838887  -0.280035  -1.396455 
  1  -4.018848  -0.512178   0.876391 
  1   0.074286  -0.210856  -1.975395 
  6   1.243587   1.445746   0.898709 
  6   0.838887   0.280035   1.396455 
  1   0.661682   2.345979   1.057759 
  1  -0.074286   0.210856   1.975395 
  6   1.663200  -0.964107   1.227344 
  1   2.298573  -1.072496   2.116318 
  1   1.015835  -1.842319   1.205078 
  6   2.490124   1.536957   0.136281 
  1   2.892627   2.517404  -0.088621 
  6   3.111354   0.438024  -0.288476 
  1   4.018848   0.512178  -0.876391 
  6   2.534434  -0.926987  -0.030159 
  1   1.936253  -1.217234  -0.902586 
  1   3.331183  -1.668816   0.048441 
  6  -1.243587  -1.445746  -0.898709 
  1  -0.661682  -2.345979  -1.057759 
  6  -2.490124  -1.536957  -0.136281 
  1  -2.892627  -2.517404   0.088621 
  6  -1.663200   0.964107  -1.227344 
  1  -1.015835   1.842319  -1.205078 
  1  -2.298573   1.072496  -2.116318 
  6  -2.534434   0.926987   0.030159 
  1  -3.331183   1.668816  -0.048441 
  1  -1.936253   1.217234   0.902586 

qrep pcmdoc geomview  nodis nocav g03defaults tsare=0.075 
nsfe=28
NVESolv=36  SolvMW=84.1595   Rsolv=2.815 
eps=2.0165 RhoS=0.7781

   -3.111354    -0.438024     0.288476     1.700000     1.150000
   -0.838887    -0.280035    -1.396455     1.700000     1.150000
   -4.018848    -0.512178     0.876391     1.200000     1.150000
    0.074286    -0.210856    -1.975395     1.200000     1.150000
    1.243587     1.445746     0.898709     1.700000     1.150000
    0.838887     0.280035     1.396455     1.700000     1.150000
    0.661682     2.345979     1.057759     1.200000     1.150000
   -0.074286     0.210856     1.975395     1.200000     1.150000
    1.663200    -0.964107     1.227344     1.700000     1.150000
    2.298573    -1.072496     2.116318     1.200000     1.150000
    1.015835    -1.842319     1.205078     1.200000     1.150000
    2.490124     1.536957     0.136281     1.700000     1.150000
    2.892627     2.517404    -0.088621     1.200000     1.150000
    3.111354     0.438024    -0.288476     1.700000     1.150000
    4.018848     0.512178    -0.876391     1.200000     1.150000
    2.534434    -0.926987    -0.030159     1.700000     1.150000
    1.936253    -1.217234    -0.902586     1.200000     1.150000
    3.331183    -1.668816     0.048441     1.200000     1.150000
   -1.243587    -1.445746    -0.898709     1.700000     1.150000
   -0.661682    -2.345979    -1.057759     1.200000     1.150000
   -2.490124    -1.536957    -0.136281     1.700000     1.150000
   -2.892627    -2.517404     0.088621     1.200000     1.150000
   -1.663200     0.964107    -1.227344     1.700000     1.150000
   -1.015835     1.842319    -1.205078     1.200000     1.150000
   -2.298573     1.072496    -2.116318     1.200000     1.150000
   -2.534434     0.926987     0.030159     1.700000     1.150000
   -3.331183     1.668816    -0.048441     1.200000     1.150000
   -1.936253     1.217234     0.902586     1.200000     1.150000

--link1--
%chk=meso-TS_82_2_xp-110.chk
%nproc=24
%mem=48GB
#p uwb97xd guess=mix def2tzvp 
# scrf=(iefpcm,solvent=Cyclohexane,read) nosym guess=only pop=none 

endo-2
xp-pcm for eta=3

0 1
  6  -3.111354  -0.438024   0.288476 
  6  -0.838887  -0.280035  -1.396455 
  1  -4.018848  -0.512178   0.876391 
  1   0.074286  -0.210856  -1.975395 
  6   1.243587   1.445746   0.898709 
  6   0.838887   0.280035   1.396455 
  1   0.661682   2.345979   1.057759 
  1  -0.074286   0.210856   1.975395 
  6   1.663200  -0.964107   1.227344 
  1   2.298573  -1.072496   2.116318 
  1   1.015835  -1.842319   1.205078 
  6   2.490124   1.536957   0.136281 
  1   2.892627   2.517404  -0.088621 
  6   3.111354   0.438024  -0.288476 
  1   4.018848   0.512178  -0.876391 
  6   2.534434  -0.926987  -0.030159 
  1   1.936253  -1.217234  -0.902586 
  1   3.331183  -1.668816   0.048441 
  6  -1.243587  -1.445746  -0.898709 
  1  -0.661682  -2.345979  -1.057759 
  6  -2.490124  -1.536957  -0.136281 
  1  -2.892627  -2.517404   0.088621 
  6  -1.663200   0.964107  -1.227344 
  1  -1.015835   1.842319  -1.205078 
  1  -2.298573   1.072496  -2.116318 
  6  -2.534434   0.926987   0.030159 
  1  -3.331183   1.668816  -0.048441 
  1  -1.936253   1.217234   0.902586 

qrep pcmdoc geomview  nodis nocav g03defaults tsare=0.075 
nsfe=28
NVESolv=36  SolvMW=84.1595   Rsolv=2.815 
eps=2.0165 RhoS=0.7781

   -3.111354    -0.438024     0.288476     1.700000     1.100000
   -0.838887    -0.280035    -1.396455     1.700000     1.100000
   -4.018848    -0.512178     0.876391     1.200000     1.100000
    0.074286    -0.210856    -1.975395     1.200000     1.100000
    1.243587     1.445746     0.898709     1.700000     1.100000
    0.838887     0.280035     1.396455     1.700000     1.100000
    0.661682     2.345979     1.057759     1.200000     1.100000
   -0.074286     0.210856     1.975395     1.200000     1.100000
    1.663200    -0.964107     1.227344     1.700000     1.100000
    2.298573    -1.072496     2.116318     1.200000     1.100000
    1.015835    -1.842319     1.205078     1.200000     1.100000
    2.490124     1.536957     0.136281     1.700000     1.100000
    2.892627     2.517404    -0.088621     1.200000     1.100000
    3.111354     0.438024    -0.288476     1.700000     1.100000
    4.018848     0.512178    -0.876391     1.200000     1.100000
    2.534434    -0.926987    -0.030159     1.700000     1.100000
    1.936253    -1.217234    -0.902586     1.200000     1.100000
    3.331183    -1.668816     0.048441     1.200000     1.100000
   -1.243587    -1.445746    -0.898709     1.700000     1.100000
   -0.661682    -2.345979    -1.057759     1.200000     1.100000
   -2.490124    -1.536957    -0.136281     1.700000     1.100000
   -2.892627    -2.517404     0.088621     1.200000     1.100000
   -1.663200     0.964107    -1.227344     1.700000     1.100000
   -1.015835     1.842319    -1.205078     1.200000     1.100000
   -2.298573     1.072496    -2.116318     1.200000     1.100000
   -2.534434     0.926987     0.030159     1.700000     1.100000
   -3.331183     1.668816    -0.048441     1.200000     1.100000
   -1.936253     1.217234     0.902586     1.200000     1.100000

--link1--
%chk=meso-TS_82_2_xp-105.chk
%nproc=24
%mem=48GB
#p uwb97xd guess=mix def2tzvp 
# scrf=(iefpcm,solvent=Cyclohexane,read) nosym guess=only pop=none 

endo-2
xp-pcm for eta=3

0 1
  6  -3.111354  -0.438024   0.288476 
  6  -0.838887  -0.280035  -1.396455 
  1  -4.018848  -0.512178   0.876391 
  1   0.074286  -0.210856  -1.975395 
  6   1.243587   1.445746   0.898709 
  6   0.838887   0.280035   1.396455 
  1   0.661682   2.345979   1.057759 
  1  -0.074286   0.210856   1.975395 
  6   1.663200  -0.964107   1.227344 
  1   2.298573  -1.072496   2.116318 
  1   1.015835  -1.842319   1.205078 
  6   2.490124   1.536957   0.136281 
  1   2.892627   2.517404  -0.088621 
  6   3.111354   0.438024  -0.288476 
  1   4.018848   0.512178  -0.876391 
  6   2.534434  -0.926987  -0.030159 
  1   1.936253  -1.217234  -0.902586 
  1   3.331183  -1.668816   0.048441 
  6  -1.243587  -1.445746  -0.898709 
  1  -0.661682  -2.345979  -1.057759 
  6  -2.490124  -1.536957  -0.136281 
  1  -2.892627  -2.517404   0.088621 
  6  -1.663200   0.964107  -1.227344 
  1  -1.015835   1.842319  -1.205078 
  1  -2.298573   1.072496  -2.116318 
  6  -2.534434   0.926987   0.030159 
  1  -3.331183   1.668816  -0.048441 
  1  -1.936253   1.217234   0.902586 

qrep pcmdoc geomview  nodis nocav g03defaults tsare=0.075 
nsfe=28
NVESolv=36  SolvMW=84.1595   Rsolv=2.815 
eps=2.0165 RhoS=0.7781

   -3.111354    -0.438024     0.288476     1.700000     1.050000
   -0.838887    -0.280035    -1.396455     1.700000     1.050000
   -4.018848    -0.512178     0.876391     1.200000     1.050000
    0.074286    -0.210856    -1.975395     1.200000     1.050000
    1.243587     1.445746     0.898709     1.700000     1.050000
    0.838887     0.280035     1.396455     1.700000     1.050000
    0.661682     2.345979     1.057759     1.200000     1.050000
   -0.074286     0.210856     1.975395     1.200000     1.050000
    1.663200    -0.964107     1.227344     1.700000     1.050000
    2.298573    -1.072496     2.116318     1.200000     1.050000
    1.015835    -1.842319     1.205078     1.200000     1.050000
    2.490124     1.536957     0.136281     1.700000     1.050000
    2.892627     2.517404    -0.088621     1.200000     1.050000
    3.111354     0.438024    -0.288476     1.700000     1.050000
    4.018848     0.512178    -0.876391     1.200000     1.050000
    2.534434    -0.926987    -0.030159     1.700000     1.050000
    1.936253    -1.217234    -0.902586     1.200000     1.050000
    3.331183    -1.668816     0.048441     1.200000     1.050000
   -1.243587    -1.445746    -0.898709     1.700000     1.050000
   -0.661682    -2.345979    -1.057759     1.200000     1.050000
   -2.490124    -1.536957    -0.136281     1.700000     1.050000
   -2.892627    -2.517404     0.088621     1.200000     1.050000
   -1.663200     0.964107    -1.227344     1.700000     1.050000
   -1.015835     1.842319    -1.205078     1.200000     1.050000
   -2.298573     1.072496    -2.116318     1.200000     1.050000
   -2.534434     0.926987     0.030159     1.700000     1.050000
   -3.331183     1.668816    -0.048441     1.200000     1.050000
   -1.936253     1.217234     0.902586     1.200000     1.050000

--link1--
%chk=meso-TS_82_2_xp-100.chk
%nproc=24
%mem=48GB
#p uwb97xd guess=mix def2tzvp 
# scrf=(iefpcm,solvent=Cyclohexane,read) nosym guess=only pop=none 

endo-2
xp-pcm for eta=3

0 1
  6  -3.111354  -0.438024   0.288476 
  6  -0.838887  -0.280035  -1.396455 
  1  -4.018848  -0.512178   0.876391 
  1   0.074286  -0.210856  -1.975395 
  6   1.243587   1.445746   0.898709 
  6   0.838887   0.280035   1.396455 
  1   0.661682   2.345979   1.057759 
  1  -0.074286   0.210856   1.975395 
  6   1.663200  -0.964107   1.227344 
  1   2.298573  -1.072496   2.116318 
  1   1.015835  -1.842319   1.205078 
  6   2.490124   1.536957   0.136281 
  1   2.892627   2.517404  -0.088621 
  6   3.111354   0.438024  -0.288476 
  1   4.018848   0.512178  -0.876391 
  6   2.534434  -0.926987  -0.030159 
  1   1.936253  -1.217234  -0.902586 
  1   3.331183  -1.668816   0.048441 
  6  -1.243587  -1.445746  -0.898709 
  1  -0.661682  -2.345979  -1.057759 
  6  -2.490124  -1.536957  -0.136281 
  1  -2.892627  -2.517404   0.088621 
  6  -1.663200   0.964107  -1.227344 
  1  -1.015835   1.842319  -1.205078 
  1  -2.298573   1.072496  -2.116318 
  6  -2.534434   0.926987   0.030159 
  1  -3.331183   1.668816  -0.048441 
  1  -1.936253   1.217234   0.902586 

qrep pcmdoc geomview  nodis nocav g03defaults tsare=0.075 
nsfe=28
NVESolv=36  SolvMW=84.1595   Rsolv=2.815 
eps=2.0165 RhoS=0.7781

   -3.111354    -0.438024     0.288476     1.700000     1.000000
   -0.838887    -0.280035    -1.396455     1.700000     1.000000
   -4.018848    -0.512178     0.876391     1.200000     1.000000
    0.074286    -0.210856    -1.975395     1.200000     1.000000
    1.243587     1.445746     0.898709     1.700000     1.000000
    0.838887     0.280035     1.396455     1.700000     1.000000
    0.661682     2.345979     1.057759     1.200000     1.000000
   -0.074286     0.210856     1.975395     1.200000     1.000000
    1.663200    -0.964107     1.227344     1.700000     1.000000
    2.298573    -1.072496     2.116318     1.200000     1.000000
    1.015835    -1.842319     1.205078     1.200000     1.000000
    2.490124     1.536957     0.136281     1.700000     1.000000
    2.892627     2.517404    -0.088621     1.200000     1.000000
    3.111354     0.438024    -0.288476     1.700000     1.000000
    4.018848     0.512178    -0.876391     1.200000     1.000000
    2.534434    -0.926987    -0.030159     1.700000     1.000000
    1.936253    -1.217234    -0.902586     1.200000     1.000000
    3.331183    -1.668816     0.048441     1.200000     1.000000
   -1.243587    -1.445746    -0.898709     1.700000     1.000000
   -0.661682    -2.345979    -1.057759     1.200000     1.000000
   -2.490124    -1.536957    -0.136281     1.700000     1.000000
   -2.892627    -2.517404     0.088621     1.200000     1.000000
   -1.663200     0.964107    -1.227344     1.700000     1.000000
   -1.015835     1.842319    -1.205078     1.200000     1.000000
   -2.298573     1.072496    -2.116318     1.200000     1.000000
   -2.534434     0.926987     0.030159     1.700000     1.000000
   -3.331183     1.668816    -0.048441     1.200000     1.000000
   -1.936253     1.217234     0.902586     1.200000     1.000000

--link1--
%chk=meso-TS_82_2_xp-0975.chk
%nproc=24
%mem=48GB
#p uwb97xd guess=mix def2tzvp 
# scrf=(iefpcm,solvent=Cyclohexane,read) nosym guess=only pop=none 

endo-2
xp-pcm for eta=3

0 1
  6  -3.111354  -0.438024   0.288476 
  6  -0.838887  -0.280035  -1.396455 
  1  -4.018848  -0.512178   0.876391 
  1   0.074286  -0.210856  -1.975395 
  6   1.243587   1.445746   0.898709 
  6   0.838887   0.280035   1.396455 
  1   0.661682   2.345979   1.057759 
  1  -0.074286   0.210856   1.975395 
  6   1.663200  -0.964107   1.227344 
  1   2.298573  -1.072496   2.116318 
  1   1.015835  -1.842319   1.205078 
  6   2.490124   1.536957   0.136281 
  1   2.892627   2.517404  -0.088621 
  6   3.111354   0.438024  -0.288476 
  1   4.018848   0.512178  -0.876391 
  6   2.534434  -0.926987  -0.030159 
  1   1.936253  -1.217234  -0.902586 
  1   3.331183  -1.668816   0.048441 
  6  -1.243587  -1.445746  -0.898709 
  1  -0.661682  -2.345979  -1.057759 
  6  -2.490124  -1.536957  -0.136281 
  1  -2.892627  -2.517404   0.088621 
  6  -1.663200   0.964107  -1.227344 
  1  -1.015835   1.842319  -1.205078 
  1  -2.298573   1.072496  -2.116318 
  6  -2.534434   0.926987   0.030159 
  1  -3.331183   1.668816  -0.048441 
  1  -1.936253   1.217234   0.902586 

qrep pcmdoc geomview  nodis nocav g03defaults tsare=0.075 
nsfe=28
NVESolv=36  SolvMW=84.1595   Rsolv=2.815 
eps=2.0165 RhoS=0.7781

   -3.111354    -0.438024     0.288476     1.700000     0.975000
   -0.838887    -0.280035    -1.396455     1.700000     0.975000
   -4.018848    -0.512178     0.876391     1.200000     0.975000
    0.074286    -0.210856    -1.975395     1.200000     0.975000
    1.243587     1.445746     0.898709     1.700000     0.975000
    0.838887     0.280035     1.396455     1.700000     0.975000
    0.661682     2.345979     1.057759     1.200000     0.975000
   -0.074286     0.210856     1.975395     1.200000     0.975000
    1.663200    -0.964107     1.227344     1.700000     0.975000
    2.298573    -1.072496     2.116318     1.200000     0.975000
    1.015835    -1.842319     1.205078     1.200000     0.975000
    2.490124     1.536957     0.136281     1.700000     0.975000
    2.892627     2.517404    -0.088621     1.200000     0.975000
    3.111354     0.438024    -0.288476     1.700000     0.975000
    4.018848     0.512178    -0.876391     1.200000     0.975000
    2.534434    -0.926987    -0.030159     1.700000     0.975000
    1.936253    -1.217234    -0.902586     1.200000     0.975000
    3.331183    -1.668816     0.048441     1.200000     0.975000
   -1.243587    -1.445746    -0.898709     1.700000     0.975000
   -0.661682    -2.345979    -1.057759     1.200000     0.975000
   -2.490124    -1.536957    -0.136281     1.700000     0.975000
   -2.892627    -2.517404     0.088621     1.200000     0.975000
   -1.663200     0.964107    -1.227344     1.700000     0.975000
   -1.015835     1.842319    -1.205078     1.200000     0.975000
   -2.298573     1.072496    -2.116318     1.200000     0.975000
   -2.534434     0.926987     0.030159     1.700000     0.975000
   -3.331183     1.668816    -0.048441     1.200000     0.975000
   -1.936253     1.217234     0.902586     1.200000     0.975000

--link1--
%chk=meso-TS_82_2_xp-095.chk
%nproc=24
%mem=48GB
#p uwb97xd guess=mix def2tzvp 
# scrf=(iefpcm,solvent=Cyclohexane,read) nosym guess=only pop=none 

endo-2
xp-pcm for eta=3

0 1
  6  -3.111354  -0.438024   0.288476 
  6  -0.838887  -0.280035  -1.396455 
  1  -4.018848  -0.512178   0.876391 
  1   0.074286  -0.210856  -1.975395 
  6   1.243587   1.445746   0.898709 
  6   0.838887   0.280035   1.396455 
  1   0.661682   2.345979   1.057759 
  1  -0.074286   0.210856   1.975395 
  6   1.663200  -0.964107   1.227344 
  1   2.298573  -1.072496   2.116318 
  1   1.015835  -1.842319   1.205078 
  6   2.490124   1.536957   0.136281 
  1   2.892627   2.517404  -0.088621 
  6   3.111354   0.438024  -0.288476 
  1   4.018848   0.512178  -0.876391 
  6   2.534434  -0.926987  -0.030159 
  1   1.936253  -1.217234  -0.902586 
  1   3.331183  -1.668816   0.048441 
  6  -1.243587  -1.445746  -0.898709 
  1  -0.661682  -2.345979  -1.057759 
  6  -2.490124  -1.536957  -0.136281 
  1  -2.892627  -2.517404   0.088621 
  6  -1.663200   0.964107  -1.227344 
  1  -1.015835   1.842319  -1.205078 
  1  -2.298573   1.072496  -2.116318 
  6  -2.534434   0.926987   0.030159 
  1  -3.331183   1.668816  -0.048441 
  1  -1.936253   1.217234   0.902586 

qrep pcmdoc geomview  nodis nocav g03defaults tsare=0.075 
nsfe=28
NVESolv=36  SolvMW=84.1595   Rsolv=2.815 
eps=2.0165 RhoS=0.7781

   -3.111354    -0.438024     0.288476     1.700000     0.950000
   -0.838887    -0.280035    -1.396455     1.700000     0.950000
   -4.018848    -0.512178     0.876391     1.200000     0.950000
    0.074286    -0.210856    -1.975395     1.200000     0.950000
    1.243587     1.445746     0.898709     1.700000     0.950000
    0.838887     0.280035     1.396455     1.700000     0.950000
    0.661682     2.345979     1.057759     1.200000     0.950000
   -0.074286     0.210856     1.975395     1.200000     0.950000
    1.663200    -0.964107     1.227344     1.700000     0.950000
    2.298573    -1.072496     2.116318     1.200000     0.950000
    1.015835    -1.842319     1.205078     1.200000     0.950000
    2.490124     1.536957     0.136281     1.700000     0.950000
    2.892627     2.517404    -0.088621     1.200000     0.950000
    3.111354     0.438024    -0.288476     1.700000     0.950000
    4.018848     0.512178    -0.876391     1.200000     0.950000
    2.534434    -0.926987    -0.030159     1.700000     0.950000
    1.936253    -1.217234    -0.902586     1.200000     0.950000
    3.331183    -1.668816     0.048441     1.200000     0.950000
   -1.243587    -1.445746    -0.898709     1.700000     0.950000
   -0.661682    -2.345979    -1.057759     1.200000     0.950000
   -2.490124    -1.536957    -0.136281     1.700000     0.950000
   -2.892627    -2.517404     0.088621     1.200000     0.950000
   -1.663200     0.964107    -1.227344     1.700000     0.950000
   -1.015835     1.842319    -1.205078     1.200000     0.950000
   -2.298573     1.072496    -2.116318     1.200000     0.950000
   -2.534434     0.926987     0.030159     1.700000     0.950000
   -3.331183     1.668816    -0.048441     1.200000     0.950000
   -1.936253     1.217234     0.902586     1.200000     0.950000

