%nproc=24
%mem=48GB
#p uwb97xd guess=mix def2tzvp 

endo-2

0 1
  6  -3.125048  -0.440790   0.272237 
  6  -0.772216  -0.261072  -1.296963 
  1  -4.055569  -0.526500   0.821387 
  1   0.166397  -0.183200  -1.832007 
  6   1.195969   1.432300   0.830705 
  6   0.772216   0.261072   1.296963 
  1   0.605368   2.329470   0.973625 
  1  -0.166397   0.183200   1.832007 
  6   1.601779  -0.982757   1.157821 
  1   2.169937  -1.110338   2.088327 
  1   0.952723  -1.855838   1.076808 
  6   2.470647   1.532911   0.118464 
  1   2.870093   2.516851  -0.096498 
  6   3.125048   0.440790  -0.272237 
  1   4.055569   0.526500  -0.821387 
  6   2.564667  -0.934672  -0.032646 
  1   2.048855  -1.258175  -0.945069 
  1   3.374044  -1.651297   0.119021 
  6  -1.195969  -1.432300  -0.830705 
  1  -0.605368  -2.329470  -0.973625 
  6  -2.470647  -1.532911  -0.118464 
  1  -2.870093  -2.516851   0.096498 
  6  -1.601779   0.982757  -1.157821 
  1  -0.952723   1.855838  -1.076808 
  1  -2.169937   1.110338  -2.088327 
  6  -2.564667   0.934672   0.032646 
  1  -3.374044   1.651297  -0.119021 
  1  -2.048855   1.258175   0.945069 

