%nproc=24
%mem=48GB
#p uwb97xd guess=mix def2tzvp 

endo-2

0 1
  6  -3.124798  -0.439649   0.251267 
  6  -0.651497  -0.231570  -1.112620 
  1  -4.084762  -0.544273   0.743569 
  1   0.318432  -0.139179  -1.582936 
  6   1.118142   1.416225   0.728919 
  6   0.651497   0.231570   1.112620 
  1   0.526329   2.314057   0.856799 
  1  -0.318432   0.139179   1.582936 
  6   1.505479  -1.000955   1.042048 
  1   1.989432  -1.099350   2.021971 
  1   0.887250  -1.889530   0.923550 
  6   2.434823   1.522382   0.105682 
  1   2.840742   2.509429  -0.081389 
  6   3.124798   0.439649  -0.251267 
  1   4.084762   0.544273  -0.743569 
  6   2.586776  -0.949724  -0.043056 
  1   2.199935  -1.323789  -0.999038 
  1   3.399757  -1.627364   0.225556 
  6  -1.118142  -1.416225  -0.728919 
  1  -0.526329  -2.314057  -0.856799 
  6  -2.434823  -1.522382  -0.105682 
  1  -2.840742  -2.509429   0.081389 
  6  -1.505479   1.000955  -1.042048 
  1  -0.887250   1.889530  -0.923550 
  1  -1.989432   1.099350  -2.021971 
  6  -2.586776   0.949724   0.043056 
  1  -3.399757   1.627364  -0.225556 
  1  -2.199935   1.323789   0.999038 

