%nproc=24
%mem=48GB
#p uwb97xd guess=mix def2tzvp 

endo-2

0 1
  6  -3.127319  -0.441423   0.265013 
  6  -0.738956  -0.252711  -1.248121 
  1  -4.067819  -0.532227   0.796079 
  1   0.209853  -0.171128  -1.763891 
  6   1.172835   1.426880   0.799622 
  6   0.738956   0.252711   1.248121 
  1   0.580222   2.323447   0.937065 
  1  -0.209853   0.171128   1.763891 
  6   1.571287  -0.990584   1.123458 
  1   2.109802  -1.122735   2.070624 
  1   0.925041  -1.862867   1.019696 
  6   2.459668   1.530683   0.111049 
  1   2.859100   2.515866  -0.098211 
  6   3.127319   0.441423  -0.265013 
  1   4.067819   0.532227  -0.796079 
  6   2.573573  -0.938378  -0.034653 
  1   2.096370  -1.275946  -0.962901 
  1   3.385828  -1.643778   0.150953 
  6  -1.172835  -1.426880  -0.799622 
  1  -0.580222  -2.323447  -0.937065 
  6  -2.459668  -1.530683  -0.111049 
  1  -2.859100  -2.515866   0.098211 
  6  -1.571287   0.990584  -1.123458 
  1  -0.925041   1.862867  -1.019696 
  1  -2.109802   1.122735  -2.070624 
  6  -2.573573   0.938378   0.034653 
  1  -3.385828   1.643778  -0.150953 
  1  -2.096370   1.275946   0.962901 

