%nproc=24
%mem=48GB
#p uwb97xd guess=mix def2tzvp 

endo-2

0 1
  6  -3.126291  -0.441157   0.268985 
  6  -0.757686  -0.257442  -1.275795 
  1  -4.061348  -0.529127   0.810029 
  1   0.185622  -0.177987  -1.802151 
  6   1.185715   1.429858   0.816852 
  6   0.757686   0.257442   1.275795 
  1   0.594119   2.326710   0.957288 
  1  -0.185622   0.177987   1.802151 
  6   1.587936  -0.986462   1.142448 
  1   2.142388  -1.117379   2.080646 
  1   0.939662  -1.858807   1.050450 
  6   2.465733   1.531984   0.114875 
  1   2.864992   2.516507  -0.097773 
  6   3.126291   0.441157  -0.268985 
  1   4.061348   0.529127  -0.810029 
  6   2.568975  -0.936287  -0.033432 
  1   2.070596  -1.266186  -0.953245 
  1   3.379882  -1.647811   0.133534 
  6  -1.185715  -1.429858  -0.816852 
  1  -0.594119  -2.326710  -0.957288 
  6  -2.465733  -1.531984  -0.114875 
  1  -2.864992  -2.516507   0.097773 
  6  -1.587936   0.986462  -1.142448 
  1  -0.939662   1.858807  -1.050450 
  1  -2.142388   1.117379  -2.080646 
  6  -2.568975   0.936287   0.033432 
  1  -3.379882   1.647811  -0.133534 
  1  -2.070596   1.266186   0.953245 

