%nproc=24
%mem=48GB
#p uwb97xd guess=mix def2tzvp 

endo-2

0 1
  6  -3.127076  -0.441002   0.255706 
  6  -0.688465  -0.240759  -1.171937 
  1  -4.080551  -0.539608   0.761675 
  1   0.274551  -0.152885  -1.658456 
  6   1.139630   1.420229   0.756069 
  6   0.688465   0.240759   1.171937 
  1   0.546228   2.317002   0.886318 
  1  -0.274551   0.152885   1.658456 
  6   1.530044  -0.998611   1.074246 
  1   2.032639  -1.121547   2.041999 
  1   0.896051  -1.876428   0.952660 
  6   2.444333   1.526400   0.105120 
  1   2.846769   2.512843  -0.092217 
  6   3.127076   0.441002  -0.255706 
  1   4.080551   0.539608  -0.761676 
  6   2.582280  -0.944563  -0.039200 
  1   2.159430  -1.302587  -0.986018 
  1   3.395827  -1.633927   0.195259 
  6  -1.139630  -1.420229  -0.756069 
  1  -0.546228  -2.317002  -0.886318 
  6  -2.444333  -1.526400  -0.105120 
  1  -2.846769  -2.512843   0.092217 
  6  -1.530044   0.998611  -1.074246 
  1  -0.896051   1.876428  -0.952660 
  1  -2.032639   1.121547  -2.041999 
  6  -2.582280   0.944563   0.039200 
  1  -3.395827   1.633927  -0.195259 
  1  -2.159430   1.302587   0.986018 

