%nproc=24
%mem=48GB
#p uwb97xd guess=mix def2tzvp 

endo-2

0 1
  6  -3.127753  -0.441522   0.261122 
  6  -0.719921  -0.248221  -1.219838 
  1  -4.073595  -0.535125   0.782132 
  1   0.234126  -0.164733  -1.725204 
  6   1.160074   1.424218   0.782600 
  6   0.719921   0.248221   1.219838 
  1   0.566933   2.320735   0.917353 
  1  -0.234126   0.164733   1.725204 
  6   1.554591  -0.994289   1.104230 
  1   2.077836  -1.126314   2.059864 
  1   0.911886  -1.867512   0.990956 
  6   2.453641   1.529303   0.107811 
  1   2.853781   2.515042  -0.097470 
  6   3.127753   0.441522  -0.261122 
  1   4.073595   0.535125  -0.782132 
  6   2.577324  -0.940508  -0.036133 
  1   2.121249  -1.285571  -0.972240 
  1   3.390356  -1.639895   0.168128 
  6  -1.160074  -1.424218  -0.782600 
  1  -0.566933  -2.320735  -0.917353 
  6  -2.453641  -1.529303  -0.107811 
  1  -2.853781  -2.515042   0.097470 
  6  -1.554591   0.994289  -1.104230 
  1  -0.911886   1.867512  -0.990956 
  1  -2.077836   1.126314  -2.059864 
  6  -2.577324   0.940508   0.036133 
  1  -3.390356   1.639895  -0.168129 
  1  -2.121249   1.285571   0.972240 

