%nproc=24
%mem=48GB
#p uwb97xd guess=mix def2tzvp 

endo-2

0 1
  6  -3.106560  -0.437378   0.291938 
  6  -0.848443  -0.283188  -1.412362 
  1  -4.009580  -0.509623   0.886930 
  1   0.059937  -0.215575  -1.999027 
  6   1.250446   1.448137   0.910401 
  6   0.848443   0.283188   1.412362 
  1   0.670918   2.349204   1.073365 
  1  -0.059937   0.215575   1.999027 
  6   1.671088  -0.961349   1.237510 
  1   2.316912  -1.067273   2.119278 
  1   1.024124  -1.840049   1.224471 
  6   2.491494   1.537477   0.138807 
  1   2.894509   2.517243  -0.088123 
  6   3.106560   0.437378  -0.291938 
  1   4.009580   0.509623  -0.886930 
  6   2.527393  -0.925952  -0.029998 
  1   1.916886  -1.211409  -0.895423 
  1   3.321807  -1.671334   0.037592 
  6  -1.250446  -1.448137  -0.910401 
  1  -0.670918  -2.349204  -1.073365 
  6  -2.491494  -1.537477  -0.138807 
  1  -2.894509  -2.517243   0.088123 
  6  -1.671088   0.961349  -1.237510 
  1  -1.024124   1.840049  -1.224471 
  1  -2.316912   1.067273  -2.119278 
  6  -2.527393   0.925952   0.029998 
  1  -3.321807   1.671334  -0.037592 
  1  -1.916886   1.211409   0.895423 

