%nproc=24
%mem=48GB
#p uwb97xd guess=mix def2tzvp 

endo-2

0 1
  6  -3.127720  -0.441522   0.261879 
  6  -0.723705  -0.249081  -1.225493 
  1  -4.072507  -0.534544   0.784900 
  1   0.229264  -0.166016  -1.733023 
  6   1.162657   1.424724   0.786024 
  6   0.723705   0.249081   1.225493 
  1   0.569616   2.321245   0.921346 
  1  -0.229264   0.166016   1.733023 
  6   1.557907  -0.993580   1.108090 
  1   2.084216  -1.125601   2.062062 
  1   0.914642  -1.866738   0.996878 
  6   2.454842   1.529601   0.108382 
  1   2.854785   2.515238  -0.097764 
  6   3.127720   0.441522  -0.261879 
  1   4.072507   0.534544  -0.784900 
  6   2.576614  -0.940068  -0.035813 
  1   2.116332  -1.283617  -0.970410 
  1   3.389524  -1.640664   0.164715 
  6  -1.162657  -1.424724  -0.786024 
  1  -0.569616  -2.321245  -0.921346 
  6  -2.454842  -1.529601  -0.108382 
  1  -2.854785  -2.515238   0.097764 
  6  -1.557907   0.993580  -1.108090 
  1  -0.914642   1.866738  -0.996878 
  1  -2.084216   1.125601  -2.062062 
  6  -2.576615   0.940068   0.035813 
  1  -3.389524   1.640664  -0.164715 
  1  -2.116332   1.283617   0.970410 

