%nproc=24
%mem=48GB
#p uwb97xd guess=mix def2tzvp 

endo-2

0 1
  6  -3.118545  -0.423500   0.248223 
  6  -0.402344  -0.116575  -0.672864 
  1  -4.093571  -0.546048   0.703566 
  1   0.333633  -0.108030  -1.481168 
  6   1.107682   1.434119   0.643785 
  6   0.402344   0.116575   0.672864 
  1   0.575901   2.330463   0.937322 
  1  -0.333633   0.108030   1.481168 
  6   1.433587  -0.989852   0.953879 
  1   1.831677  -0.829046   1.959162 
  1   0.953866  -1.970051   0.954345 
  6   2.392223   1.530795   0.133818 
  1   2.840546   2.512465   0.025049 
  6   3.118545   0.423500  -0.248223 
  1   4.093571   0.546048  -0.703566 
  6   2.590666  -0.961461  -0.045609 
  1   2.263468  -1.371998  -1.010466 
  1   3.394447  -1.622447   0.290265 
  6  -1.107682  -1.434119  -0.643785 
  1  -0.575901  -2.330463  -0.937322 
  6  -2.392223  -1.530795  -0.133818 
  1  -2.840546  -2.512465  -0.025049 
  6  -1.433587   0.989852  -0.953879 
  1  -0.953866   1.970051  -0.954345 
  1  -1.831677   0.829046  -1.959162 
  6  -2.590666   0.961461   0.045609 
  1  -3.394447   1.622447  -0.290265 
  1  -2.263468   1.371998   1.010466 

