%nproc=24
%mem=48GB
#p uwb97xd guess=mix def2tzvp 

endo-2

0 1
  6  -3.121125  -0.437682   0.248133 
  6  -0.600238  -0.215063  -1.020422 
  1  -4.084766  -0.548668   0.731690 
  1   0.366663  -0.122477  -1.494606 
  6   1.096954   1.409748   0.701783 
  6   0.600238   0.215063   1.020422 
  1   0.513508   2.310415   0.844314 
  1  -0.366663   0.122477   1.494606 
  6   1.479771  -1.000427   1.006531 
  1   1.943879  -1.034753   2.000211 
  1   0.894496  -1.913610   0.914692 
  6   2.424380   1.517274   0.109755 
  1   2.832735   2.505553  -0.065421 
  6   3.121125   0.437682  -0.248133 
  1   4.084766   0.548668  -0.731690 
  6   2.590669  -0.955616  -0.045902 
  1   2.241029  -1.347897  -1.008914 
  1   3.400849  -1.620999   0.259807 
  6  -1.096954  -1.409748  -0.701783 
  1  -0.513508  -2.310415  -0.844314 
  6  -2.424380  -1.517274  -0.109755 
  1  -2.832735  -2.505553   0.065421 
  6  -1.479771   1.000427  -1.006531 
  1  -0.894496   1.913610  -0.914692 
  1  -1.943879   1.034753  -2.000211 
  6  -2.590669   0.955616   0.045902 
  1  -3.400849   1.620999  -0.259807 
  1  -2.241029   1.347897   1.008914 

