%nproc=24
%mem=48GB
#p uwb97xd guess=mix def2tzvp 

endo-2

0 1
  6  -3.118809  -0.436953   0.247111 
  6  -0.560178  -0.198472  -0.941269 
  1  -4.083033  -0.549885   0.728942 
  1   0.381189  -0.117450  -1.466559 
  6   1.090468   1.404717   0.690213 
  6   0.560178   0.198472   0.941269 
  1   0.519911   2.308569   0.861771 
  1  -0.381189   0.117450   1.466559 
  6   1.467646  -0.999502   0.990889 
  1   1.914655  -0.975852   1.992113 
  1   0.910404  -1.932655   0.923636 
  6   2.418579   1.516021   0.112421 
  1   2.827649   2.505343  -0.055549 
  6   3.118809   0.436953  -0.247111 
  1   4.083033   0.549885  -0.728942 
  6   2.591645  -0.957839  -0.044970 
  1   2.252634  -1.355556  -1.009561 
  1   3.400520  -1.619930   0.271500 
  6  -1.090468  -1.404717  -0.690213 
  1  -0.519910  -2.308569  -0.861771 
  6  -2.418579  -1.516021  -0.112421 
  1  -2.827649  -2.505343   0.055549 
  6  -1.467646   0.999502  -0.990889 
  1  -0.910404   1.932655  -0.923636 
  1  -1.914655   0.975853  -1.992113 
  6  -2.591645   0.957839   0.044970 
  1  -3.400520   1.619930  -0.271500 
  1  -2.252635   1.355556   1.009561 

