%nproc=24
%mem=48GB
#p uwb97xd guess=mix def2tzvp 

endo-2

0 1
  6  -3.121383  -0.439786   0.278573 
  6  -0.800745  -0.268438  -1.338526 
  1  -4.042797  -0.520903   0.843511 
  1   0.127793  -0.193832  -1.891513 
  6   1.216214   1.437376   0.858528 
  6   0.800745   0.268438   1.338526 
  1   0.628386   2.335481   1.007240 
  1  -0.127793   0.193832   1.891513 
  6   1.629350  -0.974908   1.188058 
  1   2.226202  -1.093121   2.101896 
  1   0.981255  -1.850934   1.132407 
  6   2.479972   1.534582   0.126136 
  1   2.880435   2.517238  -0.092737 
  6   3.121383   0.439786  -0.278573 
  1   4.042797   0.520903  -0.843511 
  6   2.554253  -0.931499  -0.031416 
  1   2.003322  -1.241330  -0.927893 
  1   3.359279  -1.658725   0.089310 
  6  -1.216214  -1.437376  -0.858528 
  1  -0.628386  -2.335481  -1.007240 
  6  -2.479972  -1.534582  -0.126136 
  1  -2.880435  -2.517238   0.092737 
  6  -1.629350   0.974908  -1.188058 
  1  -0.981255   1.850934  -1.132407 
  1  -2.226202   1.093121  -2.101896 
  6  -2.554253   0.931499   0.031416 
  1  -3.359279   1.658725  -0.089310 
  1  -2.003322   1.241330   0.927893 

