%nproc=24
%mem=48GB
#p uwb97xd guess=mix def2tzvp 

endo-2

0 1
  6  -3.119578  -0.425217   0.248560 
  6  -0.428745  -0.123633  -0.723229 
  1  -4.087430  -0.546559   0.719418 
  1   0.329284  -0.108326  -1.508715 
  6   1.116070   1.433349   0.665574 
  6   0.428745   0.123633   0.723229 
  1   0.570603   2.333628   0.919394 
  1  -0.329284   0.108326   1.508715 
  6   1.451137  -0.996929   0.975467 
  1   1.865018  -0.875461   1.980457 
  1   0.953455  -1.967879   0.952503 
  6   2.394851   1.530480   0.126351 
  1   2.829761   2.513706  -0.016177 
  6   3.119578   0.425217  -0.248560 
  1   4.087430   0.546559  -0.719418 
  6   2.592904  -0.960090  -0.042392 
  1   2.248200  -1.361447  -1.004828 
  1   3.401042  -1.625136   0.273832 
  6  -1.116070  -1.433349  -0.665574 
  1  -0.570603  -2.333628  -0.919394 
  6  -2.394851  -1.530480  -0.126351 
  1  -2.829761  -2.513706   0.016177 
  6  -1.451137   0.996929  -0.975467 
  1  -0.953455   1.967879  -0.952503 
  1  -1.865018   0.875461  -1.980457 
  6  -2.592904   0.960090   0.042392 
  1  -3.401042   1.625136  -0.273832 
  1  -2.248200   1.361447   1.004828 

