%nproc=24
%mem=48GB
#p uwb97xd guess=mix def2tzvp 

endo-2

0 1
  6  -3.119722  -0.426167   0.248359 
  6  -0.442845  -0.129717  -0.749128 
  1  -4.086519  -0.547023   0.721572 
  1   0.330508  -0.110435  -1.517928 
  6   1.116019   1.432051   0.670174 
  6   0.442845   0.129717   0.749128 
  1   0.565642   2.332865   0.910759 
  1  -0.330508   0.110435   1.517928 
  6   1.455164  -0.998172   0.980221 
  1   1.876036  -0.893673   1.984579 
  1   0.948311  -1.963993   0.948746 
  6   2.396398   1.529333   0.124531 
  1   2.827192   2.513077  -0.025912 
  6   3.119722   0.426167  -0.248359 
  1   4.086519   0.547023  -0.721572 
  6   2.592878  -0.959585  -0.042428 
  1   2.246566  -1.359654  -1.004662 
  1   3.401505  -1.624878   0.271755 
  6  -1.116019  -1.432051  -0.670174 
  1  -0.565642  -2.332865  -0.910759 
  6  -2.396398  -1.529333  -0.124531 
  1  -2.827192  -2.513077   0.025912 
  6  -1.455164   0.998172  -0.980221 
  1  -0.948311   1.963993  -0.948746 
  1  -1.876036   0.893673  -1.984579 
  6  -2.592878   0.959585   0.042428 
  1  -3.401505   1.624878  -0.271755 
  1  -2.246566   1.359654   1.004662 

