%nproc=24
%mem=48GB
#p uwb97xd guess=mix def2tzvp 

endo-2

0 1
  6  -3.125394  -0.440885   0.271424 
  6  -0.768596  -0.260150  -1.291699 
  1  -4.057051  -0.527170   0.818557 
  1   0.171225  -0.181867  -1.824529 
  6   1.193401   1.431673   0.827234 
  6   0.768596   0.260150   1.291699 
  1   0.602555   2.328763   0.969559 
  1  -0.171225   0.181868   1.824529 
  6   1.598338  -0.983697   1.153998 
  1   2.163071  -1.112111   2.086450 
  1   0.949426  -1.856577   1.070136 
  6   2.469413   1.532677   0.117533 
  1   2.868782   2.516768  -0.096887 
  6   3.125394   0.440885  -0.271424 
  1   4.057051   0.527170  -0.818557 
  6   2.565807  -0.935083  -0.032831 
  1   2.054378  -1.260227  -0.947142 
  1   3.375610  -1.650411   0.122694 
  6  -1.193401  -1.431673  -0.827234 
  1  -0.602555  -2.328763  -0.969559 
  6  -2.469413  -1.532677  -0.117533 
  1  -2.868782  -2.516768   0.096887 
  6  -1.598338   0.983697  -1.153998 
  1  -0.949426   1.856577  -1.070136 
  1  -2.163071   1.112111  -2.086450 
  6  -2.565807   0.935083   0.032831 
  1  -3.375610   1.650411  -0.122694 
  1  -2.054378   1.260227   0.947142 

