%nproc=24
%mem=48GB
#p uwb97xd guess=mix def2tzvp 

endo-2

0 1
  6  -3.123217  -0.438730   0.249622 
  6  -0.630358  -0.225460  -1.076313 
  1  -4.085359  -0.546471   0.736950 
  1   0.341104  -0.131514  -1.542170 
  6   1.107879   1.413799   0.716082 
  6   0.630358   0.225460   1.076313 
  1   0.518466   2.312642   0.846511 
  1  -0.341104   0.131514   1.542170 
  6   1.493698  -1.001111   1.025758 
  1   1.969306  -1.076780   2.011760 
  1   0.887743  -1.898859   0.915843 
  6   2.430101   1.520018   0.107222 
  1   2.837504   2.507474  -0.074502 
  6   3.123217   0.438730  -0.249622 
  1   4.085359   0.546471  -0.736950 
  6   2.588782  -0.952526  -0.044807 
  1   2.219878  -1.335260  -1.004448 
  1   3.400800  -1.624164   0.241467 
  6  -1.107879  -1.413799  -0.716082 
  1  -0.518466  -2.312642  -0.846511 
  6  -2.430101  -1.520018  -0.107222 
  1  -2.837504  -2.507474   0.074502 
  6  -1.493698   1.001111  -1.025758 
  1  -0.887743   1.898859  -0.915843 
  1  -1.969306   1.076780  -2.011760 
  6  -2.588782   0.952526   0.044807 
  1  -3.400800   1.624164  -0.241467 
  1  -2.219878   1.335260   1.004448 

