%chk=meso-TS_64_2_xp-12.chk
%nproc=24
%mem=48GB
#p uwb97xd guess=mix def2tzvp 
# scrf=(iefpcm,solvent=Cyclohexane,read) nosym 6d 10f 

endo-2
xp-pcm for eta=3

0 1
  6  -3.124680  -0.440685   0.273036 
  6  -0.775792  -0.261985  -1.302176 
  1  -4.054066  -0.525819   0.824190 
  1   0.161604  -0.184531  -1.839436 
  6   1.198536   1.432924   0.834184 
  6   0.775792   0.261985   1.302176 
  1   0.608196   2.330179   0.977711 
  1  -0.161604   0.184531   1.839436 
  6   1.605227  -0.981794   1.161635 
  1   2.176937  -1.108268   2.090145 
  1   0.956297  -1.855279   1.083849 
  6   2.471867   1.533139   0.119408 
  1   2.871405   2.516926  -0.096077 
  6   3.124680   0.440685  -0.273036 
  1   4.054066   0.525819  -0.824190 
  6   2.563488  -0.934271  -0.032474 
  1   2.043317  -1.256129  -0.942998 
  1   3.372415  -1.652191   0.115362 
  6  -1.198536  -1.432924  -0.834184 
  1  -0.608196  -2.330179  -0.977711 
  6  -2.471867  -1.533139  -0.119408 
  1  -2.871405  -2.516926   0.096077 
  6  -1.605227   0.981794  -1.161635 
  1  -0.956297   1.855279  -1.083849 
  1  -2.176937   1.108268  -2.090145 
  6  -2.563488   0.934271   0.032474 
  1  -3.372415   1.652191  -0.115362 
  1  -2.043317   1.256129   0.942998 

qrep pcmdoc geomview  nodis nocav g03defaults tsare=0.075 
nsfe=28
NVESolv=36  SolvMW=84.1595   Rsolv=2.815 
eps=2.0165 RhoS=0.778099999999998

   -3.124680    -0.440685     0.273036     1.700000     1.200000
   -0.775792    -0.261985    -1.302176     1.700000     1.200000
   -4.054066    -0.525819     0.824190     1.200000     1.200000
    0.161604    -0.184531    -1.839436     1.200000     1.200000
    1.198536     1.432924     0.834184     1.700000     1.200000
    0.775792     0.261985     1.302176     1.700000     1.200000
    0.608196     2.330179     0.977711     1.200000     1.200000
   -0.161604     0.184531     1.839436     1.200000     1.200000
    1.605227    -0.981794     1.161635     1.700000     1.200000
    2.176937    -1.108268     2.090145     1.200000     1.200000
    0.956297    -1.855279     1.083849     1.200000     1.200000
    2.471867     1.533139     0.119408     1.700000     1.200000
    2.871405     2.516926    -0.096077     1.200000     1.200000
    3.124680     0.440685    -0.273036     1.700000     1.200000
    4.054066     0.525819    -0.824190     1.200000     1.200000
    2.563488    -0.934271    -0.032474     1.700000     1.200000
    2.043317    -1.256129    -0.942998     1.200000     1.200000
    3.372415    -1.652191     0.115362     1.200000     1.200000
   -1.198536    -1.432924    -0.834184     1.700000     1.200000
   -0.608196    -2.330179    -0.977711     1.200000     1.200000
   -2.471867    -1.533139    -0.119408     1.700000     1.200000
   -2.871405    -2.516926     0.096077     1.200000     1.200000
   -1.605227     0.981794    -1.161635     1.700000     1.200000
   -0.956297     1.855279    -1.083849     1.200000     1.200000
   -2.176937     1.108268    -2.090145     1.200000     1.200000
   -2.563488     0.934271     0.032474     1.700000     1.200000
   -3.372415     1.652191    -0.115362     1.200000     1.200000
   -2.043317     1.256129     0.942998     1.200000     1.200000

--link1--
%chk=meso-TS_64_2_xp-115.chk
%nproc=24
%mem=48GB
#p uwb97xd guess=mix def2tzvp 
# scrf=(iefpcm,solvent=Cyclohexane,read) nosym 6d 10f 

endo-2
xp-pcm for eta=3

0 1
  6  -3.124680  -0.440685   0.273036 
  6  -0.775792  -0.261985  -1.302176 
  1  -4.054066  -0.525819   0.824190 
  1   0.161604  -0.184531  -1.839436 
  6   1.198536   1.432924   0.834184 
  6   0.775792   0.261985   1.302176 
  1   0.608196   2.330179   0.977711 
  1  -0.161604   0.184531   1.839436 
  6   1.605227  -0.981794   1.161635 
  1   2.176937  -1.108268   2.090145 
  1   0.956297  -1.855279   1.083849 
  6   2.471867   1.533139   0.119408 
  1   2.871405   2.516926  -0.096077 
  6   3.124680   0.440685  -0.273036 
  1   4.054066   0.525819  -0.824190 
  6   2.563488  -0.934271  -0.032474 
  1   2.043317  -1.256129  -0.942998 
  1   3.372415  -1.652191   0.115362 
  6  -1.198536  -1.432924  -0.834184 
  1  -0.608196  -2.330179  -0.977711 
  6  -2.471867  -1.533139  -0.119408 
  1  -2.871405  -2.516926   0.096077 
  6  -1.605227   0.981794  -1.161635 
  1  -0.956297   1.855279  -1.083849 
  1  -2.176937   1.108268  -2.090145 
  6  -2.563488   0.934271   0.032474 
  1  -3.372415   1.652191  -0.115362 
  1  -2.043317   1.256129   0.942998 

qrep pcmdoc geomview  nodis nocav g03defaults tsare=0.075 
nsfe=28
NVESolv=36  SolvMW=84.1595   Rsolv=2.815 
eps=2.08074995319988 RhoS=0.87957140140931

   -3.124680    -0.440685     0.273036     1.700000     1.150000
   -0.775792    -0.261985    -1.302176     1.700000     1.150000
   -4.054066    -0.525819     0.824190     1.200000     1.150000
    0.161604    -0.184531    -1.839436     1.200000     1.150000
    1.198536     1.432924     0.834184     1.700000     1.150000
    0.775792     0.261985     1.302176     1.700000     1.150000
    0.608196     2.330179     0.977711     1.200000     1.150000
   -0.161604     0.184531     1.839436     1.200000     1.150000
    1.605227    -0.981794     1.161635     1.700000     1.150000
    2.176937    -1.108268     2.090145     1.200000     1.150000
    0.956297    -1.855279     1.083849     1.200000     1.150000
    2.471867     1.533139     0.119408     1.700000     1.150000
    2.871405     2.516926    -0.096077     1.200000     1.150000
    3.124680     0.440685    -0.273036     1.700000     1.150000
    4.054066     0.525819    -0.824190     1.200000     1.150000
    2.563488    -0.934271    -0.032474     1.700000     1.150000
    2.043317    -1.256129    -0.942998     1.200000     1.150000
    3.372415    -1.652191     0.115362     1.200000     1.150000
   -1.198536    -1.432924    -0.834184     1.700000     1.150000
   -0.608196    -2.330179    -0.977711     1.200000     1.150000
   -2.471867    -1.533139    -0.119408     1.700000     1.150000
   -2.871405    -2.516926     0.096077     1.200000     1.150000
   -1.605227     0.981794    -1.161635     1.700000     1.150000
   -0.956297     1.855279    -1.083849     1.200000     1.150000
   -2.176937     1.108268    -2.090145     1.200000     1.150000
   -2.563488     0.934271     0.032474     1.700000     1.150000
   -3.372415     1.652191    -0.115362     1.200000     1.150000
   -2.043317     1.256129     0.942998     1.200000     1.150000

--link1--
%chk=meso-TS_64_2_xp-110.chk
%nproc=24
%mem=48GB
#p uwb97xd guess=mix def2tzvp 
# scrf=(iefpcm,solvent=Cyclohexane,read) nosym 6d 10f 

endo-2
xp-pcm for eta=3

0 1
  6  -3.124680  -0.440685   0.273036 
  6  -0.775792  -0.261985  -1.302176 
  1  -4.054066  -0.525819   0.824190 
  1   0.161604  -0.184531  -1.839436 
  6   1.198536   1.432924   0.834184 
  6   0.775792   0.261985   1.302176 
  1   0.608196   2.330179   0.977711 
  1  -0.161604   0.184531   1.839436 
  6   1.605227  -0.981794   1.161635 
  1   2.176937  -1.108268   2.090145 
  1   0.956297  -1.855279   1.083849 
  6   2.471867   1.533139   0.119408 
  1   2.871405   2.516926  -0.096077 
  6   3.124680   0.440685  -0.273036 
  1   4.054066   0.525819  -0.824190 
  6   2.563488  -0.934271  -0.032474 
  1   2.043317  -1.256129  -0.942998 
  1   3.372415  -1.652191   0.115362 
  6  -1.198536  -1.432924  -0.834184 
  1  -0.608196  -2.330179  -0.977711 
  6  -2.471867  -1.533139  -0.119408 
  1  -2.871405  -2.516926   0.096077 
  6  -1.605227   0.981794  -1.161635 
  1  -0.956297   1.855279  -1.083849 
  1  -2.176937   1.108268  -2.090145 
  6  -2.563488   0.934271   0.032474 
  1  -3.372415   1.652191  -0.115362 
  1  -2.043317   1.256129   0.942998 

qrep pcmdoc geomview  nodis nocav g03defaults tsare=0.075 
nsfe=28
NVESolv=36  SolvMW=84.1595   Rsolv=2.815 
eps=2.14797859684703 RhoS=0.992403372535132

   -3.124680    -0.440685     0.273036     1.700000     1.100000
   -0.775792    -0.261985    -1.302176     1.700000     1.100000
   -4.054066    -0.525819     0.824190     1.200000     1.100000
    0.161604    -0.184531    -1.839436     1.200000     1.100000
    1.198536     1.432924     0.834184     1.700000     1.100000
    0.775792     0.261985     1.302176     1.700000     1.100000
    0.608196     2.330179     0.977711     1.200000     1.100000
   -0.161604     0.184531     1.839436     1.200000     1.100000
    1.605227    -0.981794     1.161635     1.700000     1.100000
    2.176937    -1.108268     2.090145     1.200000     1.100000
    0.956297    -1.855279     1.083849     1.200000     1.100000
    2.471867     1.533139     0.119408     1.700000     1.100000
    2.871405     2.516926    -0.096077     1.200000     1.100000
    3.124680     0.440685    -0.273036     1.700000     1.100000
    4.054066     0.525819    -0.824190     1.200000     1.100000
    2.563488    -0.934271    -0.032474     1.700000     1.100000
    2.043317    -1.256129    -0.942998     1.200000     1.100000
    3.372415    -1.652191     0.115362     1.200000     1.100000
   -1.198536    -1.432924    -0.834184     1.700000     1.100000
   -0.608196    -2.330179    -0.977711     1.200000     1.100000
   -2.471867    -1.533139    -0.119408     1.700000     1.100000
   -2.871405    -2.516926     0.096077     1.200000     1.100000
   -1.605227     0.981794    -1.161635     1.700000     1.100000
   -0.956297     1.855279    -1.083849     1.200000     1.100000
   -2.176937     1.108268    -2.090145     1.200000     1.100000
   -2.563488     0.934271     0.032474     1.700000     1.100000
   -3.372415     1.652191    -0.115362     1.200000     1.100000
   -2.043317     1.256129     0.942998     1.200000     1.100000

--link1--
%chk=meso-TS_64_2_xp-105.chk
%nproc=24
%mem=48GB
#p uwb97xd guess=mix def2tzvp 
# scrf=(iefpcm,solvent=Cyclohexane,read) nosym 6d 10f 

endo-2
xp-pcm for eta=3

0 1
  6  -3.124680  -0.440685   0.273036 
  6  -0.775792  -0.261985  -1.302176 
  1  -4.054066  -0.525819   0.824190 
  1   0.161604  -0.184531  -1.839436 
  6   1.198536   1.432924   0.834184 
  6   0.775792   0.261985   1.302176 
  1   0.608196   2.330179   0.977711 
  1  -0.161604   0.184531   1.839436 
  6   1.605227  -0.981794   1.161635 
  1   2.176937  -1.108268   2.090145 
  1   0.956297  -1.855279   1.083849 
  6   2.471867   1.533139   0.119408 
  1   2.871405   2.516926  -0.096077 
  6   3.124680   0.440685  -0.273036 
  1   4.054066   0.525819  -0.824190 
  6   2.563488  -0.934271  -0.032474 
  1   2.043317  -1.256129  -0.942998 
  1   3.372415  -1.652191   0.115362 
  6  -1.198536  -1.432924  -0.834184 
  1  -0.608196  -2.330179  -0.977711 
  6  -2.471867  -1.533139  -0.119408 
  1  -2.871405  -2.516926   0.096077 
  6  -1.605227   0.981794  -1.161635 
  1  -0.956297   1.855279  -1.083849 
  1  -2.176937   1.108268  -2.090145 
  6  -2.563488   0.934271   0.032474 
  1  -3.372415   1.652191  -0.115362 
  1  -2.043317   1.256129   0.942998 

qrep pcmdoc geomview  nodis nocav g03defaults tsare=0.075 
nsfe=28
NVESolv=36  SolvMW=84.1595   Rsolv=2.815 
eps=2.22376880117094 RhoS=1.12776705486046

   -3.124680    -0.440685     0.273036     1.700000     1.050000
   -0.775792    -0.261985    -1.302176     1.700000     1.050000
   -4.054066    -0.525819     0.824190     1.200000     1.050000
    0.161604    -0.184531    -1.839436     1.200000     1.050000
    1.198536     1.432924     0.834184     1.700000     1.050000
    0.775792     0.261985     1.302176     1.700000     1.050000
    0.608196     2.330179     0.977711     1.200000     1.050000
   -0.161604     0.184531     1.839436     1.200000     1.050000
    1.605227    -0.981794     1.161635     1.700000     1.050000
    2.176937    -1.108268     2.090145     1.200000     1.050000
    0.956297    -1.855279     1.083849     1.200000     1.050000
    2.471867     1.533139     0.119408     1.700000     1.050000
    2.871405     2.516926    -0.096077     1.200000     1.050000
    3.124680     0.440685    -0.273036     1.700000     1.050000
    4.054066     0.525819    -0.824190     1.200000     1.050000
    2.563488    -0.934271    -0.032474     1.700000     1.050000
    2.043317    -1.256129    -0.942998     1.200000     1.050000
    3.372415    -1.652191     0.115362     1.200000     1.050000
   -1.198536    -1.432924    -0.834184     1.700000     1.050000
   -0.608196    -2.330179    -0.977711     1.200000     1.050000
   -2.471867    -1.533139    -0.119408     1.700000     1.050000
   -2.871405    -2.516926     0.096077     1.200000     1.050000
   -1.605227     0.981794    -1.161635     1.700000     1.050000
   -0.956297     1.855279    -1.083849     1.200000     1.050000
   -2.176937     1.108268    -2.090145     1.200000     1.050000
   -2.563488     0.934271     0.032474     1.700000     1.050000
   -3.372415     1.652191    -0.115362     1.200000     1.050000
   -2.043317     1.256129     0.942998     1.200000     1.050000

--link1--
%chk=meso-TS_64_2_xp-100.chk
%nproc=24
%mem=48GB
#p uwb97xd guess=mix def2tzvp 
# scrf=(iefpcm,solvent=Cyclohexane,read) nosym 6d 10f 

endo-2
xp-pcm for eta=3

0 1
  6  -3.124680  -0.440685   0.273036 
  6  -0.775792  -0.261985  -1.302176 
  1  -4.054066  -0.525819   0.824190 
  1   0.161604  -0.184531  -1.839436 
  6   1.198536   1.432924   0.834184 
  6   0.775792   0.261985   1.302176 
  1   0.608196   2.330179   0.977711 
  1  -0.161604   0.184531   1.839436 
  6   1.605227  -0.981794   1.161635 
  1   2.176937  -1.108268   2.090145 
  1   0.956297  -1.855279   1.083849 
  6   2.471867   1.533139   0.119408 
  1   2.871405   2.516926  -0.096077 
  6   3.124680   0.440685  -0.273036 
  1   4.054066   0.525819  -0.824190 
  6   2.563488  -0.934271  -0.032474 
  1   2.043317  -1.256129  -0.942998 
  1   3.372415  -1.652191   0.115362 
  6  -1.198536  -1.432924  -0.834184 
  1  -0.608196  -2.330179  -0.977711 
  6  -2.471867  -1.533139  -0.119408 
  1  -2.871405  -2.516926   0.096077 
  6  -1.605227   0.981794  -1.161635 
  1  -0.956297   1.855279  -1.083849 
  1  -2.176937   1.108268  -2.090145 
  6  -2.563488   0.934271   0.032474 
  1  -3.372415   1.652191  -0.115362 
  1  -2.043317   1.256129   0.942998 

qrep pcmdoc geomview  nodis nocav g03defaults tsare=0.075 
nsfe=28
NVESolv=36  SolvMW=84.1595   Rsolv=2.815 
eps=2.30480546666792 RhoS=1.28207131826017

   -3.124680    -0.440685     0.273036     1.700000     1.000000
   -0.775792    -0.261985    -1.302176     1.700000     1.000000
   -4.054066    -0.525819     0.824190     1.200000     1.000000
    0.161604    -0.184531    -1.839436     1.200000     1.000000
    1.198536     1.432924     0.834184     1.700000     1.000000
    0.775792     0.261985     1.302176     1.700000     1.000000
    0.608196     2.330179     0.977711     1.200000     1.000000
   -0.161604     0.184531     1.839436     1.200000     1.000000
    1.605227    -0.981794     1.161635     1.700000     1.000000
    2.176937    -1.108268     2.090145     1.200000     1.000000
    0.956297    -1.855279     1.083849     1.200000     1.000000
    2.471867     1.533139     0.119408     1.700000     1.000000
    2.871405     2.516926    -0.096077     1.200000     1.000000
    3.124680     0.440685    -0.273036     1.700000     1.000000
    4.054066     0.525819    -0.824190     1.200000     1.000000
    2.563488    -0.934271    -0.032474     1.700000     1.000000
    2.043317    -1.256129    -0.942998     1.200000     1.000000
    3.372415    -1.652191     0.115362     1.200000     1.000000
   -1.198536    -1.432924    -0.834184     1.700000     1.000000
   -0.608196    -2.330179    -0.977711     1.200000     1.000000
   -2.471867    -1.533139    -0.119408     1.700000     1.000000
   -2.871405    -2.516926     0.096077     1.200000     1.000000
   -1.605227     0.981794    -1.161635     1.700000     1.000000
   -0.956297     1.855279    -1.083849     1.200000     1.000000
   -2.176937     1.108268    -2.090145     1.200000     1.000000
   -2.563488     0.934271     0.032474     1.700000     1.000000
   -3.372415     1.652191    -0.115362     1.200000     1.000000
   -2.043317     1.256129     0.942998     1.200000     1.000000

--link1--
%chk=meso-TS_64_2_xp-0975.chk
%nproc=24
%mem=48GB
#p uwb97xd guess=mix def2tzvp 
# scrf=(iefpcm,solvent=Cyclohexane,read) nosym 6d 10f 

endo-2
xp-pcm for eta=3

0 1
  6  -3.124680  -0.440685   0.273036 
  6  -0.775792  -0.261985  -1.302176 
  1  -4.054066  -0.525819   0.824190 
  1   0.161604  -0.184531  -1.839436 
  6   1.198536   1.432924   0.834184 
  6   0.775792   0.261985   1.302176 
  1   0.608196   2.330179   0.977711 
  1  -0.161604   0.184531   1.839436 
  6   1.605227  -0.981794   1.161635 
  1   2.176937  -1.108268   2.090145 
  1   0.956297  -1.855279   1.083849 
  6   2.471867   1.533139   0.119408 
  1   2.871405   2.516926  -0.096077 
  6   3.124680   0.440685  -0.273036 
  1   4.054066   0.525819  -0.824190 
  6   2.563488  -0.934271  -0.032474 
  1   2.043317  -1.256129  -0.942998 
  1   3.372415  -1.652191   0.115362 
  6  -1.198536  -1.432924  -0.834184 
  1  -0.608196  -2.330179  -0.977711 
  6  -2.471867  -1.533139  -0.119408 
  1  -2.871405  -2.516926   0.096077 
  6  -1.605227   0.981794  -1.161635 
  1  -0.956297   1.855279  -1.083849 
  1  -2.176937   1.108268  -2.090145 
  6  -2.563488   0.934271   0.032474 
  1  -3.372415   1.652191  -0.115362 
  1  -2.043317   1.256129   0.942998 

qrep pcmdoc geomview  nodis nocav g03defaults tsare=0.075 
nsfe=28
NVESolv=36  SolvMW=84.1595   Rsolv=2.815 
eps=2.34745273026226 RhoS=1.36724935387803

   -3.124680    -0.440685     0.273036     1.700000     0.975000
   -0.775792    -0.261985    -1.302176     1.700000     0.975000
   -4.054066    -0.525819     0.824190     1.200000     0.975000
    0.161604    -0.184531    -1.839436     1.200000     0.975000
    1.198536     1.432924     0.834184     1.700000     0.975000
    0.775792     0.261985     1.302176     1.700000     0.975000
    0.608196     2.330179     0.977711     1.200000     0.975000
   -0.161604     0.184531     1.839436     1.200000     0.975000
    1.605227    -0.981794     1.161635     1.700000     0.975000
    2.176937    -1.108268     2.090145     1.200000     0.975000
    0.956297    -1.855279     1.083849     1.200000     0.975000
    2.471867     1.533139     0.119408     1.700000     0.975000
    2.871405     2.516926    -0.096077     1.200000     0.975000
    3.124680     0.440685    -0.273036     1.700000     0.975000
    4.054066     0.525819    -0.824190     1.200000     0.975000
    2.563488    -0.934271    -0.032474     1.700000     0.975000
    2.043317    -1.256129    -0.942998     1.200000     0.975000
    3.372415    -1.652191     0.115362     1.200000     0.975000
   -1.198536    -1.432924    -0.834184     1.700000     0.975000
   -0.608196    -2.330179    -0.977711     1.200000     0.975000
   -2.471867    -1.533139    -0.119408     1.700000     0.975000
   -2.871405    -2.516926     0.096077     1.200000     0.975000
   -1.605227     0.981794    -1.161635     1.700000     0.975000
   -0.956297     1.855279    -1.083849     1.200000     0.975000
   -2.176937     1.108268    -2.090145     1.200000     0.975000
   -2.563488     0.934271     0.032474     1.700000     0.975000
   -3.372415     1.652191    -0.115362     1.200000     0.975000
   -2.043317     1.256129     0.942998     1.200000     0.975000

--link1--
%chk=meso-TS_64_2_xp-095.chk
%nproc=24
%mem=48GB
#p uwb97xd guess=mix def2tzvp 
# scrf=(iefpcm,solvent=Cyclohexane,read) nosym 6d 10f 

endo-2
xp-pcm for eta=3

0 1
  6  -3.124680  -0.440685   0.273036 
  6  -0.775792  -0.261985  -1.302176 
  1  -4.054066  -0.525819   0.824190 
  1   0.161604  -0.184531  -1.839436 
  6   1.198536   1.432924   0.834184 
  6   0.775792   0.261985   1.302176 
  1   0.608196   2.330179   0.977711 
  1  -0.161604   0.184531   1.839436 
  6   1.605227  -0.981794   1.161635 
  1   2.176937  -1.108268   2.090145 
  1   0.956297  -1.855279   1.083849 
  6   2.471867   1.533139   0.119408 
  1   2.871405   2.516926  -0.096077 
  6   3.124680   0.440685  -0.273036 
  1   4.054066   0.525819  -0.824190 
  6   2.563488  -0.934271  -0.032474 
  1   2.043317  -1.256129  -0.942998 
  1   3.372415  -1.652191   0.115362 
  6  -1.198536  -1.432924  -0.834184 
  1  -0.608196  -2.330179  -0.977711 
  6  -2.471867  -1.533139  -0.119408 
  1  -2.871405  -2.516926   0.096077 
  6  -1.605227   0.981794  -1.161635 
  1  -0.956297   1.855279  -1.083849 
  1  -2.176937   1.108268  -2.090145 
  6  -2.563488   0.934271   0.032474 
  1  -3.372415   1.652191  -0.115362 
  1  -2.043317   1.256129   0.942998 

qrep pcmdoc geomview  nodis nocav g03defaults tsare=0.075 
nsfe=28
NVESolv=36  SolvMW=84.1595   Rsolv=2.815 
eps=2.39339884323873 RhoS=1.4620813611373

   -3.124680    -0.440685     0.273036     1.700000     0.950000
   -0.775792    -0.261985    -1.302176     1.700000     0.950000
   -4.054066    -0.525819     0.824190     1.200000     0.950000
    0.161604    -0.184531    -1.839436     1.200000     0.950000
    1.198536     1.432924     0.834184     1.700000     0.950000
    0.775792     0.261985     1.302176     1.700000     0.950000
    0.608196     2.330179     0.977711     1.200000     0.950000
   -0.161604     0.184531     1.839436     1.200000     0.950000
    1.605227    -0.981794     1.161635     1.700000     0.950000
    2.176937    -1.108268     2.090145     1.200000     0.950000
    0.956297    -1.855279     1.083849     1.200000     0.950000
    2.471867     1.533139     0.119408     1.700000     0.950000
    2.871405     2.516926    -0.096077     1.200000     0.950000
    3.124680     0.440685    -0.273036     1.700000     0.950000
    4.054066     0.525819    -0.824190     1.200000     0.950000
    2.563488    -0.934271    -0.032474     1.700000     0.950000
    2.043317    -1.256129    -0.942998     1.200000     0.950000
    3.372415    -1.652191     0.115362     1.200000     0.950000
   -1.198536    -1.432924    -0.834184     1.700000     0.950000
   -0.608196    -2.330179    -0.977711     1.200000     0.950000
   -2.471867    -1.533139    -0.119408     1.700000     0.950000
   -2.871405    -2.516926     0.096077     1.200000     0.950000
   -1.605227     0.981794    -1.161635     1.700000     0.950000
   -0.956297     1.855279    -1.083849     1.200000     0.950000
   -2.176937     1.108268    -2.090145     1.200000     0.950000
   -2.563488     0.934271     0.032474     1.700000     0.950000
   -3.372415     1.652191    -0.115362     1.200000     0.950000
   -2.043317     1.256129     0.942998     1.200000     0.950000

