%nproc=24
%mem=48GB
#p uwb97xd guess=mix def2tzvp 

endo-2

0 1
  6  -3.118334  -0.434289   0.247013 
  6  -0.519993  -0.175310  -0.873497 
  1  -4.083106  -0.549401   0.727003 
  1   0.366370  -0.116357  -1.493712 
  6   1.097670   1.411575   0.684132 
  6   0.519993   0.175310   0.873497 
  1   0.536411   2.316754   0.879299 
  1  -0.366370   0.116357   1.493712 
  6   1.463813  -0.999914   0.987825 
  1   1.901858  -0.946248   1.990841 
  1   0.924195  -1.945371   0.932308 
  6   2.411408   1.519545   0.115619 
  1   2.825218   2.507705  -0.049134 
  6   3.118334   0.434289  -0.247013 
  1   4.083106   0.549401  -0.727003 
  6   2.592021  -0.958491  -0.043801 
  1   2.250640  -1.356691  -1.007551 
  1   3.400889  -1.621612   0.271589 
  6  -1.097670  -1.411575  -0.684132 
  1  -0.536411  -2.316754  -0.879299 
  6  -2.411408  -1.519545  -0.115619 
  1  -2.825218  -2.507705   0.049134 
  6  -1.463813   0.999914  -0.987825 
  1  -0.924195   1.945371  -0.932308 
  1  -1.901858   0.946248  -1.990841 
  6  -2.592021   0.958491   0.043801 
  1  -3.400889   1.621612  -0.271589 
  1  -2.250640   1.356691   1.007551 

