%nproc=24
%mem=48GB
#p uwb97xd guess=mix def2tzvp 

endo-2

0 1
  6  -3.126016  -0.441070   0.269789 
  6  -0.761319  -0.258334  -1.281114 
  1  -4.059948  -0.528481   0.812859 
  1   0.180852  -0.179278  -1.809595 
  6   1.188286   1.430451   0.820319 
  6   0.761319   0.258334   1.281114 
  1   0.596942   2.327381   0.961404 
  1  -0.180852   0.179278   1.809595 
  6   1.591393  -0.985550   1.146293 
  1   2.149319  -1.115545   2.082583 
  1   0.943050  -1.858196   1.057176 
  6   2.466950   1.532217   0.115730 
  1   2.866222   2.516599  -0.097536 
  6   3.126016   0.441070  -0.269789 
  1   4.059948   0.528481  -0.812859 
  6   2.567958  -0.935894  -0.033228 
  1   2.065284  -1.264244  -0.951252 
  1   3.378529  -1.648661   0.129982 
  6  -1.188286  -1.430451  -0.820319 
  1  -0.596942  -2.327381  -0.961404 
  6  -2.466950  -1.532217  -0.115730 
  1  -2.866222  -2.516599   0.097536 
  6  -1.591393   0.985550  -1.146293 
  1  -0.943050   1.858196  -1.057176 
  1  -2.149319   1.115545  -2.082583 
  6  -2.567958   0.935894   0.033228 
  1  -3.378529   1.648661  -0.129982 
  1  -2.065284   1.264244   0.951252 

