%nproc=24
%mem=48GB
#p uwb97xd guess=mix def2tzvp 

endo-2

0 1
  6  -3.119867  -0.423059   0.242362 
  6  -0.399464  -0.121031  -0.665456 
  1  -4.102983  -0.545295   0.679967 
  1   0.332815  -0.116775  -1.477337 
  6   1.102005   1.439151   0.627583 
  6   0.399464   0.121031   0.665456 
  1   0.570347   2.335794   0.919988 
  1  -0.332815   0.116775   1.477337 
  6   1.424818  -0.986752   0.942031 
  1   1.823276  -0.830898   1.947861 
  1   0.940841  -1.964613   0.940308 
  6   2.393506   1.531561   0.139068 
  1   2.848769   2.511456   0.044365 
  6   3.119867   0.423059  -0.242362 
  1   4.102983   0.545295  -0.679967 
  6   2.585761  -0.961115  -0.052535 
  1   2.266469  -1.369268  -1.020958 
  1   3.384717  -1.624588   0.289923 
  6  -1.102005  -1.439151  -0.627583 
  1  -0.570347  -2.335794  -0.919988 
  6  -2.393506  -1.531561  -0.139068 
  1  -2.848769  -2.511456  -0.044365 
  6  -1.424818   0.986752  -0.942031 
  1  -0.940841   1.964613  -0.940309 
  1  -1.823276   0.830898  -1.947861 
  6  -2.585761   0.961115   0.052535 
  1  -3.384717   1.624588  -0.289923 
  1  -2.266469   1.369268   1.020958 

