%nproc=24
%mem=48GB
#p uwb97xd guess=mix def2tzvp 

endo-2

0 1
  6  -3.120849  -0.437571   0.247983 
  6  -0.595896  -0.213392  -1.011977 
  1  -4.084599  -0.548890   0.731234 
  1   0.369499  -0.121508  -1.489233 
  6   1.095787   1.409118   0.700116 
  6   0.595896   0.213392   1.011977 
  1   0.513469   2.310071   0.845290 
  1  -0.369499   0.121508   1.489233 
  6   1.478063  -1.000287   1.004227 
  1   1.940410  -1.028087   1.998902 
  1   0.895946  -1.915783   0.915280 
  6   2.423651   1.516981   0.110100 
  1   2.832064   2.505394  -0.064213 
  6   3.120849   0.437571  -0.247983 
  1   4.084599   0.548890  -0.731234 
  6   2.590846  -0.955955  -0.045910 
  1   2.243218  -1.349244  -1.009243 
  1   3.400776  -1.620708   0.261854 
  6  -1.095787  -1.409118  -0.700116 
  1  -0.513469  -2.310071  -0.845290 
  6  -2.423651  -1.516981  -0.110100 
  1  -2.832064  -2.505394   0.064213 
  6  -1.478063   1.000287  -1.004227 
  1  -0.895946   1.915783  -0.915280 
  1  -1.940410   1.028087  -1.998902 
  6  -2.590846   0.955955   0.045910 
  1  -3.400776   1.620708  -0.261855 
  1  -2.243218   1.349244   1.009243 

