%chk=meso-TS_16_1_xp-12.chk
%nproc=24
%mem=48GB
#p uwb97xd guess=mix def2tzvp 
# scrf=(iefpcm,solvent=Cyclohexane,read) nosym guess=only pop=none 

endo-2
xp-pcm for eta=3

0 1
  6  -3.119495  -0.424944   0.248623 
  6  -0.424245  -0.121866  -0.714774 
  1  -4.087821  -0.546420   0.718451 
  1   0.329403  -0.107658  -1.504901 
  6   1.115717   1.433579   0.663678 
  6   0.424245   0.121866   0.714774 
  1   0.572069   2.333570   0.922475 
  1  -0.329403   0.107658   1.504901 
  6   1.449468  -0.996358   0.973459 
  1   1.860814  -0.868763   1.978620 
  1   0.954950  -1.969025   0.953713 
  6   2.394417   1.530763   0.127030 
  1   2.830840   2.513824  -0.012217 
  6   3.119495   0.424944  -0.248623 
  1   4.087821   0.546420  -0.718451 
  6   2.592866  -0.960276  -0.042448 
  1   2.249153  -1.362262  -1.005025 
  1   3.400748  -1.625122   0.274929 
  6  -1.115717  -1.433580  -0.663678 
  1  -0.572069  -2.333570  -0.922475 
  6  -2.394417  -1.530763  -0.127030 
  1  -2.830840  -2.513824   0.012217 
  6  -1.449468   0.996358  -0.973459 
  1  -0.954950   1.969025  -0.953713 
  1  -1.860814   0.868763  -1.978620 
  6  -2.592866   0.960276   0.042448 
  1  -3.400748   1.625122  -0.274929 
  1  -2.249153   1.362262   1.005025 

qrep pcmdoc geomview  nodis nocav g03defaults tsare=0.075 
nsfe=28
NVESolv=36  SolvMW=84.1595   Rsolv=2.815 
eps=2.0165 RhoS=0.7781

   -3.119495    -0.424944     0.248623     1.700000     1.200000
   -0.424245    -0.121866    -0.714774     1.700000     1.200000
   -4.087821    -0.546420     0.718451     1.200000     1.200000
    0.329403    -0.107658    -1.504901     1.200000     1.200000
    1.115717     1.433579     0.663678     1.700000     1.200000
    0.424245     0.121866     0.714774     1.700000     1.200000
    0.572069     2.333570     0.922475     1.200000     1.200000
   -0.329403     0.107658     1.504901     1.200000     1.200000
    1.449468    -0.996358     0.973459     1.700000     1.200000
    1.860814    -0.868763     1.978620     1.200000     1.200000
    0.954950    -1.969025     0.953713     1.200000     1.200000
    2.394417     1.530763     0.127030     1.700000     1.200000
    2.830840     2.513824    -0.012217     1.200000     1.200000
    3.119495     0.424944    -0.248623     1.700000     1.200000
    4.087821     0.546420    -0.718451     1.200000     1.200000
    2.592866    -0.960276    -0.042448     1.700000     1.200000
    2.249153    -1.362262    -1.005025     1.200000     1.200000
    3.400748    -1.625122     0.274929     1.200000     1.200000
   -1.115717    -1.433580    -0.663678     1.700000     1.200000
   -0.572069    -2.333570    -0.922475     1.200000     1.200000
   -2.394417    -1.530763    -0.127030     1.700000     1.200000
   -2.830840    -2.513824     0.012217     1.200000     1.200000
   -1.449468     0.996358    -0.973459     1.700000     1.200000
   -0.954950     1.969025    -0.953713     1.200000     1.200000
   -1.860814     0.868763    -1.978620     1.200000     1.200000
   -2.592866     0.960276     0.042448     1.700000     1.200000
   -3.400748     1.625122    -0.274929     1.200000     1.200000
   -2.249153     1.362262     1.005025     1.200000     1.200000

--link1--
%chk=meso-TS_16_1_xp-115.chk
%nproc=24
%mem=48GB
#p uwb97xd guess=mix def2tzvp 
# scrf=(iefpcm,solvent=Cyclohexane,read) nosym guess=only pop=none 

endo-2
xp-pcm for eta=3

0 1
  6  -3.119495  -0.424944   0.248623 
  6  -0.424245  -0.121866  -0.714774 
  1  -4.087821  -0.546420   0.718451 
  1   0.329403  -0.107658  -1.504901 
  6   1.115717   1.433579   0.663678 
  6   0.424245   0.121866   0.714774 
  1   0.572069   2.333570   0.922475 
  1  -0.329403   0.107658   1.504901 
  6   1.449468  -0.996358   0.973459 
  1   1.860814  -0.868763   1.978620 
  1   0.954950  -1.969025   0.953713 
  6   2.394417   1.530763   0.127030 
  1   2.830840   2.513824  -0.012217 
  6   3.119495   0.424944  -0.248623 
  1   4.087821   0.546420  -0.718451 
  6   2.592866  -0.960276  -0.042448 
  1   2.249153  -1.362262  -1.005025 
  1   3.400748  -1.625122   0.274929 
  6  -1.115717  -1.433580  -0.663678 
  1  -0.572069  -2.333570  -0.922475 
  6  -2.394417  -1.530763  -0.127030 
  1  -2.830840  -2.513824   0.012217 
  6  -1.449468   0.996358  -0.973459 
  1  -0.954950   1.969025  -0.953713 
  1  -1.860814   0.868763  -1.978620 
  6  -2.592866   0.960276   0.042448 
  1  -3.400748   1.625122  -0.274929 
  1  -2.249153   1.362262   1.005025 

qrep pcmdoc geomview  nodis nocav g03defaults tsare=0.075 
nsfe=28
NVESolv=36  SolvMW=84.1595   Rsolv=2.815 
eps=2.0165 RhoS=0.7781

   -3.119495    -0.424944     0.248623     1.700000     1.150000
   -0.424245    -0.121866    -0.714774     1.700000     1.150000
   -4.087821    -0.546420     0.718451     1.200000     1.150000
    0.329403    -0.107658    -1.504901     1.200000     1.150000
    1.115717     1.433579     0.663678     1.700000     1.150000
    0.424245     0.121866     0.714774     1.700000     1.150000
    0.572069     2.333570     0.922475     1.200000     1.150000
   -0.329403     0.107658     1.504901     1.200000     1.150000
    1.449468    -0.996358     0.973459     1.700000     1.150000
    1.860814    -0.868763     1.978620     1.200000     1.150000
    0.954950    -1.969025     0.953713     1.200000     1.150000
    2.394417     1.530763     0.127030     1.700000     1.150000
    2.830840     2.513824    -0.012217     1.200000     1.150000
    3.119495     0.424944    -0.248623     1.700000     1.150000
    4.087821     0.546420    -0.718451     1.200000     1.150000
    2.592866    -0.960276    -0.042448     1.700000     1.150000
    2.249153    -1.362262    -1.005025     1.200000     1.150000
    3.400748    -1.625122     0.274929     1.200000     1.150000
   -1.115717    -1.433580    -0.663678     1.700000     1.150000
   -0.572069    -2.333570    -0.922475     1.200000     1.150000
   -2.394417    -1.530763    -0.127030     1.700000     1.150000
   -2.830840    -2.513824     0.012217     1.200000     1.150000
   -1.449468     0.996358    -0.973459     1.700000     1.150000
   -0.954950     1.969025    -0.953713     1.200000     1.150000
   -1.860814     0.868763    -1.978620     1.200000     1.150000
   -2.592866     0.960276     0.042448     1.700000     1.150000
   -3.400748     1.625122    -0.274929     1.200000     1.150000
   -2.249153     1.362262     1.005025     1.200000     1.150000

--link1--
%chk=meso-TS_16_1_xp-110.chk
%nproc=24
%mem=48GB
#p uwb97xd guess=mix def2tzvp 
# scrf=(iefpcm,solvent=Cyclohexane,read) nosym guess=only pop=none 

endo-2
xp-pcm for eta=3

0 1
  6  -3.119495  -0.424944   0.248623 
  6  -0.424245  -0.121866  -0.714774 
  1  -4.087821  -0.546420   0.718451 
  1   0.329403  -0.107658  -1.504901 
  6   1.115717   1.433579   0.663678 
  6   0.424245   0.121866   0.714774 
  1   0.572069   2.333570   0.922475 
  1  -0.329403   0.107658   1.504901 
  6   1.449468  -0.996358   0.973459 
  1   1.860814  -0.868763   1.978620 
  1   0.954950  -1.969025   0.953713 
  6   2.394417   1.530763   0.127030 
  1   2.830840   2.513824  -0.012217 
  6   3.119495   0.424944  -0.248623 
  1   4.087821   0.546420  -0.718451 
  6   2.592866  -0.960276  -0.042448 
  1   2.249153  -1.362262  -1.005025 
  1   3.400748  -1.625122   0.274929 
  6  -1.115717  -1.433580  -0.663678 
  1  -0.572069  -2.333570  -0.922475 
  6  -2.394417  -1.530763  -0.127030 
  1  -2.830840  -2.513824   0.012217 
  6  -1.449468   0.996358  -0.973459 
  1  -0.954950   1.969025  -0.953713 
  1  -1.860814   0.868763  -1.978620 
  6  -2.592866   0.960276   0.042448 
  1  -3.400748   1.625122  -0.274929 
  1  -2.249153   1.362262   1.005025 

qrep pcmdoc geomview  nodis nocav g03defaults tsare=0.075 
nsfe=28
NVESolv=36  SolvMW=84.1595   Rsolv=2.815 
eps=2.0165 RhoS=0.7781

   -3.119495    -0.424944     0.248623     1.700000     1.100000
   -0.424245    -0.121866    -0.714774     1.700000     1.100000
   -4.087821    -0.546420     0.718451     1.200000     1.100000
    0.329403    -0.107658    -1.504901     1.200000     1.100000
    1.115717     1.433579     0.663678     1.700000     1.100000
    0.424245     0.121866     0.714774     1.700000     1.100000
    0.572069     2.333570     0.922475     1.200000     1.100000
   -0.329403     0.107658     1.504901     1.200000     1.100000
    1.449468    -0.996358     0.973459     1.700000     1.100000
    1.860814    -0.868763     1.978620     1.200000     1.100000
    0.954950    -1.969025     0.953713     1.200000     1.100000
    2.394417     1.530763     0.127030     1.700000     1.100000
    2.830840     2.513824    -0.012217     1.200000     1.100000
    3.119495     0.424944    -0.248623     1.700000     1.100000
    4.087821     0.546420    -0.718451     1.200000     1.100000
    2.592866    -0.960276    -0.042448     1.700000     1.100000
    2.249153    -1.362262    -1.005025     1.200000     1.100000
    3.400748    -1.625122     0.274929     1.200000     1.100000
   -1.115717    -1.433580    -0.663678     1.700000     1.100000
   -0.572069    -2.333570    -0.922475     1.200000     1.100000
   -2.394417    -1.530763    -0.127030     1.700000     1.100000
   -2.830840    -2.513824     0.012217     1.200000     1.100000
   -1.449468     0.996358    -0.973459     1.700000     1.100000
   -0.954950     1.969025    -0.953713     1.200000     1.100000
   -1.860814     0.868763    -1.978620     1.200000     1.100000
   -2.592866     0.960276     0.042448     1.700000     1.100000
   -3.400748     1.625122    -0.274929     1.200000     1.100000
   -2.249153     1.362262     1.005025     1.200000     1.100000

--link1--
%chk=meso-TS_16_1_xp-105.chk
%nproc=24
%mem=48GB
#p uwb97xd guess=mix def2tzvp 
# scrf=(iefpcm,solvent=Cyclohexane,read) nosym guess=only pop=none 

endo-2
xp-pcm for eta=3

0 1
  6  -3.119495  -0.424944   0.248623 
  6  -0.424245  -0.121866  -0.714774 
  1  -4.087821  -0.546420   0.718451 
  1   0.329403  -0.107658  -1.504901 
  6   1.115717   1.433579   0.663678 
  6   0.424245   0.121866   0.714774 
  1   0.572069   2.333570   0.922475 
  1  -0.329403   0.107658   1.504901 
  6   1.449468  -0.996358   0.973459 
  1   1.860814  -0.868763   1.978620 
  1   0.954950  -1.969025   0.953713 
  6   2.394417   1.530763   0.127030 
  1   2.830840   2.513824  -0.012217 
  6   3.119495   0.424944  -0.248623 
  1   4.087821   0.546420  -0.718451 
  6   2.592866  -0.960276  -0.042448 
  1   2.249153  -1.362262  -1.005025 
  1   3.400748  -1.625122   0.274929 
  6  -1.115717  -1.433580  -0.663678 
  1  -0.572069  -2.333570  -0.922475 
  6  -2.394417  -1.530763  -0.127030 
  1  -2.830840  -2.513824   0.012217 
  6  -1.449468   0.996358  -0.973459 
  1  -0.954950   1.969025  -0.953713 
  1  -1.860814   0.868763  -1.978620 
  6  -2.592866   0.960276   0.042448 
  1  -3.400748   1.625122  -0.274929 
  1  -2.249153   1.362262   1.005025 

qrep pcmdoc geomview  nodis nocav g03defaults tsare=0.075 
nsfe=28
NVESolv=36  SolvMW=84.1595   Rsolv=2.815 
eps=2.0165 RhoS=0.7781

   -3.119495    -0.424944     0.248623     1.700000     1.050000
   -0.424245    -0.121866    -0.714774     1.700000     1.050000
   -4.087821    -0.546420     0.718451     1.200000     1.050000
    0.329403    -0.107658    -1.504901     1.200000     1.050000
    1.115717     1.433579     0.663678     1.700000     1.050000
    0.424245     0.121866     0.714774     1.700000     1.050000
    0.572069     2.333570     0.922475     1.200000     1.050000
   -0.329403     0.107658     1.504901     1.200000     1.050000
    1.449468    -0.996358     0.973459     1.700000     1.050000
    1.860814    -0.868763     1.978620     1.200000     1.050000
    0.954950    -1.969025     0.953713     1.200000     1.050000
    2.394417     1.530763     0.127030     1.700000     1.050000
    2.830840     2.513824    -0.012217     1.200000     1.050000
    3.119495     0.424944    -0.248623     1.700000     1.050000
    4.087821     0.546420    -0.718451     1.200000     1.050000
    2.592866    -0.960276    -0.042448     1.700000     1.050000
    2.249153    -1.362262    -1.005025     1.200000     1.050000
    3.400748    -1.625122     0.274929     1.200000     1.050000
   -1.115717    -1.433580    -0.663678     1.700000     1.050000
   -0.572069    -2.333570    -0.922475     1.200000     1.050000
   -2.394417    -1.530763    -0.127030     1.700000     1.050000
   -2.830840    -2.513824     0.012217     1.200000     1.050000
   -1.449468     0.996358    -0.973459     1.700000     1.050000
   -0.954950     1.969025    -0.953713     1.200000     1.050000
   -1.860814     0.868763    -1.978620     1.200000     1.050000
   -2.592866     0.960276     0.042448     1.700000     1.050000
   -3.400748     1.625122    -0.274929     1.200000     1.050000
   -2.249153     1.362262     1.005025     1.200000     1.050000

--link1--
%chk=meso-TS_16_1_xp-100.chk
%nproc=24
%mem=48GB
#p uwb97xd guess=mix def2tzvp 
# scrf=(iefpcm,solvent=Cyclohexane,read) nosym guess=only pop=none 

endo-2
xp-pcm for eta=3

0 1
  6  -3.119495  -0.424944   0.248623 
  6  -0.424245  -0.121866  -0.714774 
  1  -4.087821  -0.546420   0.718451 
  1   0.329403  -0.107658  -1.504901 
  6   1.115717   1.433579   0.663678 
  6   0.424245   0.121866   0.714774 
  1   0.572069   2.333570   0.922475 
  1  -0.329403   0.107658   1.504901 
  6   1.449468  -0.996358   0.973459 
  1   1.860814  -0.868763   1.978620 
  1   0.954950  -1.969025   0.953713 
  6   2.394417   1.530763   0.127030 
  1   2.830840   2.513824  -0.012217 
  6   3.119495   0.424944  -0.248623 
  1   4.087821   0.546420  -0.718451 
  6   2.592866  -0.960276  -0.042448 
  1   2.249153  -1.362262  -1.005025 
  1   3.400748  -1.625122   0.274929 
  6  -1.115717  -1.433580  -0.663678 
  1  -0.572069  -2.333570  -0.922475 
  6  -2.394417  -1.530763  -0.127030 
  1  -2.830840  -2.513824   0.012217 
  6  -1.449468   0.996358  -0.973459 
  1  -0.954950   1.969025  -0.953713 
  1  -1.860814   0.868763  -1.978620 
  6  -2.592866   0.960276   0.042448 
  1  -3.400748   1.625122  -0.274929 
  1  -2.249153   1.362262   1.005025 

qrep pcmdoc geomview  nodis nocav g03defaults tsare=0.075 
nsfe=28
NVESolv=36  SolvMW=84.1595   Rsolv=2.815 
eps=2.0165 RhoS=0.7781

   -3.119495    -0.424944     0.248623     1.700000     1.000000
   -0.424245    -0.121866    -0.714774     1.700000     1.000000
   -4.087821    -0.546420     0.718451     1.200000     1.000000
    0.329403    -0.107658    -1.504901     1.200000     1.000000
    1.115717     1.433579     0.663678     1.700000     1.000000
    0.424245     0.121866     0.714774     1.700000     1.000000
    0.572069     2.333570     0.922475     1.200000     1.000000
   -0.329403     0.107658     1.504901     1.200000     1.000000
    1.449468    -0.996358     0.973459     1.700000     1.000000
    1.860814    -0.868763     1.978620     1.200000     1.000000
    0.954950    -1.969025     0.953713     1.200000     1.000000
    2.394417     1.530763     0.127030     1.700000     1.000000
    2.830840     2.513824    -0.012217     1.200000     1.000000
    3.119495     0.424944    -0.248623     1.700000     1.000000
    4.087821     0.546420    -0.718451     1.200000     1.000000
    2.592866    -0.960276    -0.042448     1.700000     1.000000
    2.249153    -1.362262    -1.005025     1.200000     1.000000
    3.400748    -1.625122     0.274929     1.200000     1.000000
   -1.115717    -1.433580    -0.663678     1.700000     1.000000
   -0.572069    -2.333570    -0.922475     1.200000     1.000000
   -2.394417    -1.530763    -0.127030     1.700000     1.000000
   -2.830840    -2.513824     0.012217     1.200000     1.000000
   -1.449468     0.996358    -0.973459     1.700000     1.000000
   -0.954950     1.969025    -0.953713     1.200000     1.000000
   -1.860814     0.868763    -1.978620     1.200000     1.000000
   -2.592866     0.960276     0.042448     1.700000     1.000000
   -3.400748     1.625122    -0.274929     1.200000     1.000000
   -2.249153     1.362262     1.005025     1.200000     1.000000

--link1--
%chk=meso-TS_16_1_xp-0975.chk
%nproc=24
%mem=48GB
#p uwb97xd guess=mix def2tzvp 
# scrf=(iefpcm,solvent=Cyclohexane,read) nosym guess=only pop=none 

endo-2
xp-pcm for eta=3

0 1
  6  -3.119495  -0.424944   0.248623 
  6  -0.424245  -0.121866  -0.714774 
  1  -4.087821  -0.546420   0.718451 
  1   0.329403  -0.107658  -1.504901 
  6   1.115717   1.433579   0.663678 
  6   0.424245   0.121866   0.714774 
  1   0.572069   2.333570   0.922475 
  1  -0.329403   0.107658   1.504901 
  6   1.449468  -0.996358   0.973459 
  1   1.860814  -0.868763   1.978620 
  1   0.954950  -1.969025   0.953713 
  6   2.394417   1.530763   0.127030 
  1   2.830840   2.513824  -0.012217 
  6   3.119495   0.424944  -0.248623 
  1   4.087821   0.546420  -0.718451 
  6   2.592866  -0.960276  -0.042448 
  1   2.249153  -1.362262  -1.005025 
  1   3.400748  -1.625122   0.274929 
  6  -1.115717  -1.433580  -0.663678 
  1  -0.572069  -2.333570  -0.922475 
  6  -2.394417  -1.530763  -0.127030 
  1  -2.830840  -2.513824   0.012217 
  6  -1.449468   0.996358  -0.973459 
  1  -0.954950   1.969025  -0.953713 
  1  -1.860814   0.868763  -1.978620 
  6  -2.592866   0.960276   0.042448 
  1  -3.400748   1.625122  -0.274929 
  1  -2.249153   1.362262   1.005025 

qrep pcmdoc geomview  nodis nocav g03defaults tsare=0.075 
nsfe=28
NVESolv=36  SolvMW=84.1595   Rsolv=2.815 
eps=2.0165 RhoS=0.7781

   -3.119495    -0.424944     0.248623     1.700000     0.975000
   -0.424245    -0.121866    -0.714774     1.700000     0.975000
   -4.087821    -0.546420     0.718451     1.200000     0.975000
    0.329403    -0.107658    -1.504901     1.200000     0.975000
    1.115717     1.433579     0.663678     1.700000     0.975000
    0.424245     0.121866     0.714774     1.700000     0.975000
    0.572069     2.333570     0.922475     1.200000     0.975000
   -0.329403     0.107658     1.504901     1.200000     0.975000
    1.449468    -0.996358     0.973459     1.700000     0.975000
    1.860814    -0.868763     1.978620     1.200000     0.975000
    0.954950    -1.969025     0.953713     1.200000     0.975000
    2.394417     1.530763     0.127030     1.700000     0.975000
    2.830840     2.513824    -0.012217     1.200000     0.975000
    3.119495     0.424944    -0.248623     1.700000     0.975000
    4.087821     0.546420    -0.718451     1.200000     0.975000
    2.592866    -0.960276    -0.042448     1.700000     0.975000
    2.249153    -1.362262    -1.005025     1.200000     0.975000
    3.400748    -1.625122     0.274929     1.200000     0.975000
   -1.115717    -1.433580    -0.663678     1.700000     0.975000
   -0.572069    -2.333570    -0.922475     1.200000     0.975000
   -2.394417    -1.530763    -0.127030     1.700000     0.975000
   -2.830840    -2.513824     0.012217     1.200000     0.975000
   -1.449468     0.996358    -0.973459     1.700000     0.975000
   -0.954950     1.969025    -0.953713     1.200000     0.975000
   -1.860814     0.868763    -1.978620     1.200000     0.975000
   -2.592866     0.960276     0.042448     1.700000     0.975000
   -3.400748     1.625122    -0.274929     1.200000     0.975000
   -2.249153     1.362262     1.005025     1.200000     0.975000

--link1--
%chk=meso-TS_16_1_xp-095.chk
%nproc=24
%mem=48GB
#p uwb97xd guess=mix def2tzvp 
# scrf=(iefpcm,solvent=Cyclohexane,read) nosym guess=only pop=none 

endo-2
xp-pcm for eta=3

0 1
  6  -3.119495  -0.424944   0.248623 
  6  -0.424245  -0.121866  -0.714774 
  1  -4.087821  -0.546420   0.718451 
  1   0.329403  -0.107658  -1.504901 
  6   1.115717   1.433579   0.663678 
  6   0.424245   0.121866   0.714774 
  1   0.572069   2.333570   0.922475 
  1  -0.329403   0.107658   1.504901 
  6   1.449468  -0.996358   0.973459 
  1   1.860814  -0.868763   1.978620 
  1   0.954950  -1.969025   0.953713 
  6   2.394417   1.530763   0.127030 
  1   2.830840   2.513824  -0.012217 
  6   3.119495   0.424944  -0.248623 
  1   4.087821   0.546420  -0.718451 
  6   2.592866  -0.960276  -0.042448 
  1   2.249153  -1.362262  -1.005025 
  1   3.400748  -1.625122   0.274929 
  6  -1.115717  -1.433580  -0.663678 
  1  -0.572069  -2.333570  -0.922475 
  6  -2.394417  -1.530763  -0.127030 
  1  -2.830840  -2.513824   0.012217 
  6  -1.449468   0.996358  -0.973459 
  1  -0.954950   1.969025  -0.953713 
  1  -1.860814   0.868763  -1.978620 
  6  -2.592866   0.960276   0.042448 
  1  -3.400748   1.625122  -0.274929 
  1  -2.249153   1.362262   1.005025 

qrep pcmdoc geomview  nodis nocav g03defaults tsare=0.075 
nsfe=28
NVESolv=36  SolvMW=84.1595   Rsolv=2.815 
eps=2.0165 RhoS=0.7781

   -3.119495    -0.424944     0.248623     1.700000     0.950000
   -0.424245    -0.121866    -0.714774     1.700000     0.950000
   -4.087821    -0.546420     0.718451     1.200000     0.950000
    0.329403    -0.107658    -1.504901     1.200000     0.950000
    1.115717     1.433579     0.663678     1.700000     0.950000
    0.424245     0.121866     0.714774     1.700000     0.950000
    0.572069     2.333570     0.922475     1.200000     0.950000
   -0.329403     0.107658     1.504901     1.200000     0.950000
    1.449468    -0.996358     0.973459     1.700000     0.950000
    1.860814    -0.868763     1.978620     1.200000     0.950000
    0.954950    -1.969025     0.953713     1.200000     0.950000
    2.394417     1.530763     0.127030     1.700000     0.950000
    2.830840     2.513824    -0.012217     1.200000     0.950000
    3.119495     0.424944    -0.248623     1.700000     0.950000
    4.087821     0.546420    -0.718451     1.200000     0.950000
    2.592866    -0.960276    -0.042448     1.700000     0.950000
    2.249153    -1.362262    -1.005025     1.200000     0.950000
    3.400748    -1.625122     0.274929     1.200000     0.950000
   -1.115717    -1.433580    -0.663678     1.700000     0.950000
   -0.572069    -2.333570    -0.922475     1.200000     0.950000
   -2.394417    -1.530763    -0.127030     1.700000     0.950000
   -2.830840    -2.513824     0.012217     1.200000     0.950000
   -1.449468     0.996358    -0.973459     1.700000     0.950000
   -0.954950     1.969025    -0.953713     1.200000     0.950000
   -1.860814     0.868763    -1.978620     1.200000     0.950000
   -2.592866     0.960276     0.042448     1.700000     0.950000
   -3.400748     1.625122    -0.274929     1.200000     0.950000
   -2.249153     1.362262     1.005025     1.200000     0.950000

