%nproc=24
%mem=48GB
#p uwb97xd guess=mix def2tzvp 

endo-2

0 1
  6  -3.121406  -0.437803   0.248297 
  6  -0.604570  -0.216687  -1.028758 
  1  -4.084919  -0.548424   0.732206 
  1   0.363592  -0.123551  -1.500414 
  6   1.098225   1.410372   0.703542 
  6   0.604570   0.216687   1.028758 
  1   0.513720   2.310755   0.843657 
  1  -0.363592   0.123551   1.500414 
  6   1.481555  -1.000561   1.008958 
  1   1.947380  -1.041311   2.001608 
  1   0.893154  -1.911437   0.914267 
  6   2.425129   1.517597   0.109402 
  1   2.833416   2.505743  -0.066653 
  6   3.121406   0.437803  -0.248297 
  1   4.084919   0.548424  -0.732206 
  6   2.590470  -0.955251  -0.045857 
  1   2.238619  -1.346427  -1.008509 
  1   3.400911  -1.621331   0.257597 
  6  -1.098225  -1.410372  -0.703542 
  1  -0.513720  -2.310755  -0.843657 
  6  -2.425129  -1.517597  -0.109402 
  1  -2.833416  -2.505743   0.066653 
  6  -1.481555   1.000561  -1.008958 
  1  -0.893154   1.911437  -0.914267 
  1  -1.947380   1.041311  -2.001608 
  6  -2.590470   0.955251   0.045857 
  1  -3.400911   1.621331  -0.257597 
  1  -2.238619   1.346427   1.008509 

