%nproc=24
%mem=48GB
#p uwb97xd guess=mix def2tzvp 

endo-2

0 1
  6  -3.119495  -0.424944   0.248623 
  6  -0.424245  -0.121866  -0.714774 
  1  -4.087821  -0.546420   0.718451 
  1   0.329403  -0.107658  -1.504901 
  6   1.115717   1.433579   0.663678 
  6   0.424245   0.121866   0.714774 
  1   0.572069   2.333570   0.922475 
  1  -0.329403   0.107658   1.504901 
  6   1.449468  -0.996358   0.973459 
  1   1.860814  -0.868763   1.978620 
  1   0.954950  -1.969025   0.953713 
  6   2.394417   1.530763   0.127030 
  1   2.830840   2.513824  -0.012217 
  6   3.119495   0.424944  -0.248623 
  1   4.087821   0.546420  -0.718451 
  6   2.592866  -0.960276  -0.042448 
  1   2.249153  -1.362262  -1.005025 
  1   3.400748  -1.625122   0.274929 
  6  -1.115717  -1.433580  -0.663678 
  1  -0.572069  -2.333570  -0.922475 
  6  -2.394417  -1.530763  -0.127030 
  1  -2.830840  -2.513824   0.012217 
  6  -1.449468   0.996358  -0.973459 
  1  -0.954950   1.969025  -0.953713 
  1  -1.860814   0.868763  -1.978620 
  6  -2.592866   0.960276   0.042448 
  1  -3.400748   1.625122  -0.274929 
  1  -2.249153   1.362262   1.005025 

