%nproc=24
%mem=48GB
#p uwb97xd guess=mix def2tzvp 

endo-2

0 1
  6  -3.119365  -0.429886   0.247711 
  6  -0.483238  -0.151143  -0.817662 
  1  -4.084691  -0.548341   0.724950 
  1   0.345292  -0.114825  -1.519981 
  6   1.109235   1.423870   0.678430 
  6   0.483238   0.151143   0.817662 
  1   0.550310   2.325971   0.892085 
  1  -0.345292   0.114825   1.519981 
  6   1.461352  -0.999620   0.986645 
  1   1.894943  -0.928704   1.989628 
  1   0.934187  -1.953298   0.939348 
  6   2.402996   1.524681   0.119927 
  1   2.824354   2.510372  -0.041948 
  6   3.119365   0.429886  -0.247711 
  1   4.084691   0.548341  -0.724950 
  6   2.592455  -0.958721  -0.043087 
  1   2.247288  -1.357377  -1.005814 
  1   3.401438  -1.623242   0.270678 
  6  -1.109235  -1.423870  -0.678430 
  1  -0.550310  -2.325971  -0.892085 
  6  -2.402996  -1.524681  -0.119927 
  1  -2.824354  -2.510372   0.041948 
  6  -1.461352   0.999620  -0.986645 
  1  -0.934187   1.953298  -0.939348 
  1  -1.894943   0.928704  -1.989628 
  6  -2.592455   0.958721   0.043088 
  1  -3.401438   1.623242  -0.270678 
  1  -2.247288   1.357377   1.005814 

