%chk=meso-TS_28_2_xp-12.chk
%nproc=24
%mem=48GB
#p uwb97xd guess=mix def2tzvp 
# scrf=(iefpcm,solvent=Cyclohexane,read) nosym 6d 10f 

endo-2
xp-pcm for eta=3

0 1
  6  -3.123533  -0.438909   0.249907 
  6  -0.634623  -0.226767  -1.083823 
  1  -4.085324  -0.546070   0.738063 
  1   0.336814  -0.133008  -1.549979 
  6   1.109786   1.414310   0.718484 
  6   0.634623   0.226767   1.083823 
  1   0.519777   2.312927   0.848046 
  1  -0.336814   0.133008   1.549979 
  6   1.495934  -1.001134   1.028869 
  1   1.973156  -1.081856   2.013692 
  1   0.887322  -1.896884   0.916876 
  6   2.431004   1.520477   0.106878 
  1   2.838163   2.507840  -0.075868 
  6   3.123533   0.438909  -0.249907 
  1   4.085324   0.546070  -0.738063 
  6   2.588421  -0.951995  -0.044511 
  1   2.216156  -1.333084  -1.003507 
  1   3.400666  -1.624754   0.238421 
  6  -1.109786  -1.414310  -0.718484 
  1  -0.519777  -2.312927  -0.848046 
  6  -2.431004  -1.520477  -0.106878 
  1  -2.838163  -2.507840   0.075868 
  6  -1.495934   1.001134  -1.028869 
  1  -0.887321   1.896884  -0.916876 
  1  -1.973156   1.081856  -2.013692 
  6  -2.588421   0.951995   0.044511 
  1  -3.400666   1.624754  -0.238421 
  1  -2.216156   1.333084   1.003507 

qrep pcmdoc geomview  nodis nocav g03defaults tsare=0.075 
nsfe=28
NVESolv=36  SolvMW=84.1595   Rsolv=2.815 
eps=2.0165 RhoS=0.778099999999998

   -3.123533    -0.438909     0.249907     1.700000     1.200000
   -0.634623    -0.226767    -1.083823     1.700000     1.200000
   -4.085324    -0.546070     0.738063     1.200000     1.200000
    0.336814    -0.133008    -1.549979     1.200000     1.200000
    1.109786     1.414310     0.718484     1.700000     1.200000
    0.634623     0.226767     1.083823     1.700000     1.200000
    0.519777     2.312927     0.848046     1.200000     1.200000
   -0.336814     0.133008     1.549979     1.200000     1.200000
    1.495934    -1.001134     1.028869     1.700000     1.200000
    1.973156    -1.081856     2.013692     1.200000     1.200000
    0.887322    -1.896884     0.916876     1.200000     1.200000
    2.431004     1.520477     0.106878     1.700000     1.200000
    2.838163     2.507840    -0.075868     1.200000     1.200000
    3.123533     0.438909    -0.249907     1.700000     1.200000
    4.085324     0.546070    -0.738063     1.200000     1.200000
    2.588421    -0.951995    -0.044511     1.700000     1.200000
    2.216156    -1.333084    -1.003507     1.200000     1.200000
    3.400666    -1.624754     0.238421     1.200000     1.200000
   -1.109786    -1.414310    -0.718484     1.700000     1.200000
   -0.519777    -2.312927    -0.848046     1.200000     1.200000
   -2.431004    -1.520477    -0.106878     1.700000     1.200000
   -2.838163    -2.507840     0.075868     1.200000     1.200000
   -1.495934     1.001134    -1.028869     1.700000     1.200000
   -0.887321     1.896884    -0.916876     1.200000     1.200000
   -1.973156     1.081856    -2.013692     1.200000     1.200000
   -2.588421     0.951995     0.044511     1.700000     1.200000
   -3.400666     1.624754    -0.238421     1.200000     1.200000
   -2.216156     1.333084     1.003507     1.200000     1.200000

--link1--
%chk=meso-TS_28_2_xp-115.chk
%nproc=24
%mem=48GB
#p uwb97xd guess=mix def2tzvp 
# scrf=(iefpcm,solvent=Cyclohexane,read) nosym 6d 10f 

endo-2
xp-pcm for eta=3

0 1
  6  -3.123533  -0.438909   0.249907 
  6  -0.634623  -0.226767  -1.083823 
  1  -4.085324  -0.546070   0.738063 
  1   0.336814  -0.133008  -1.549979 
  6   1.109786   1.414310   0.718484 
  6   0.634623   0.226767   1.083823 
  1   0.519777   2.312927   0.848046 
  1  -0.336814   0.133008   1.549979 
  6   1.495934  -1.001134   1.028869 
  1   1.973156  -1.081856   2.013692 
  1   0.887322  -1.896884   0.916876 
  6   2.431004   1.520477   0.106878 
  1   2.838163   2.507840  -0.075868 
  6   3.123533   0.438909  -0.249907 
  1   4.085324   0.546070  -0.738063 
  6   2.588421  -0.951995  -0.044511 
  1   2.216156  -1.333084  -1.003507 
  1   3.400666  -1.624754   0.238421 
  6  -1.109786  -1.414310  -0.718484 
  1  -0.519777  -2.312927  -0.848046 
  6  -2.431004  -1.520477  -0.106878 
  1  -2.838163  -2.507840   0.075868 
  6  -1.495934   1.001134  -1.028869 
  1  -0.887321   1.896884  -0.916876 
  1  -1.973156   1.081856  -2.013692 
  6  -2.588421   0.951995   0.044511 
  1  -3.400666   1.624754  -0.238421 
  1  -2.216156   1.333084   1.003507 

qrep pcmdoc geomview  nodis nocav g03defaults tsare=0.075 
nsfe=28
NVESolv=36  SolvMW=84.1595   Rsolv=2.815 
eps=2.08074995319988 RhoS=0.87957140140931

   -3.123533    -0.438909     0.249907     1.700000     1.150000
   -0.634623    -0.226767    -1.083823     1.700000     1.150000
   -4.085324    -0.546070     0.738063     1.200000     1.150000
    0.336814    -0.133008    -1.549979     1.200000     1.150000
    1.109786     1.414310     0.718484     1.700000     1.150000
    0.634623     0.226767     1.083823     1.700000     1.150000
    0.519777     2.312927     0.848046     1.200000     1.150000
   -0.336814     0.133008     1.549979     1.200000     1.150000
    1.495934    -1.001134     1.028869     1.700000     1.150000
    1.973156    -1.081856     2.013692     1.200000     1.150000
    0.887322    -1.896884     0.916876     1.200000     1.150000
    2.431004     1.520477     0.106878     1.700000     1.150000
    2.838163     2.507840    -0.075868     1.200000     1.150000
    3.123533     0.438909    -0.249907     1.700000     1.150000
    4.085324     0.546070    -0.738063     1.200000     1.150000
    2.588421    -0.951995    -0.044511     1.700000     1.150000
    2.216156    -1.333084    -1.003507     1.200000     1.150000
    3.400666    -1.624754     0.238421     1.200000     1.150000
   -1.109786    -1.414310    -0.718484     1.700000     1.150000
   -0.519777    -2.312927    -0.848046     1.200000     1.150000
   -2.431004    -1.520477    -0.106878     1.700000     1.150000
   -2.838163    -2.507840     0.075868     1.200000     1.150000
   -1.495934     1.001134    -1.028869     1.700000     1.150000
   -0.887321     1.896884    -0.916876     1.200000     1.150000
   -1.973156     1.081856    -2.013692     1.200000     1.150000
   -2.588421     0.951995     0.044511     1.700000     1.150000
   -3.400666     1.624754    -0.238421     1.200000     1.150000
   -2.216156     1.333084     1.003507     1.200000     1.150000

--link1--
%chk=meso-TS_28_2_xp-110.chk
%nproc=24
%mem=48GB
#p uwb97xd guess=mix def2tzvp 
# scrf=(iefpcm,solvent=Cyclohexane,read) nosym 6d 10f 

endo-2
xp-pcm for eta=3

0 1
  6  -3.123533  -0.438909   0.249907 
  6  -0.634623  -0.226767  -1.083823 
  1  -4.085324  -0.546070   0.738063 
  1   0.336814  -0.133008  -1.549979 
  6   1.109786   1.414310   0.718484 
  6   0.634623   0.226767   1.083823 
  1   0.519777   2.312927   0.848046 
  1  -0.336814   0.133008   1.549979 
  6   1.495934  -1.001134   1.028869 
  1   1.973156  -1.081856   2.013692 
  1   0.887322  -1.896884   0.916876 
  6   2.431004   1.520477   0.106878 
  1   2.838163   2.507840  -0.075868 
  6   3.123533   0.438909  -0.249907 
  1   4.085324   0.546070  -0.738063 
  6   2.588421  -0.951995  -0.044511 
  1   2.216156  -1.333084  -1.003507 
  1   3.400666  -1.624754   0.238421 
  6  -1.109786  -1.414310  -0.718484 
  1  -0.519777  -2.312927  -0.848046 
  6  -2.431004  -1.520477  -0.106878 
  1  -2.838163  -2.507840   0.075868 
  6  -1.495934   1.001134  -1.028869 
  1  -0.887321   1.896884  -0.916876 
  1  -1.973156   1.081856  -2.013692 
  6  -2.588421   0.951995   0.044511 
  1  -3.400666   1.624754  -0.238421 
  1  -2.216156   1.333084   1.003507 

qrep pcmdoc geomview  nodis nocav g03defaults tsare=0.075 
nsfe=28
NVESolv=36  SolvMW=84.1595   Rsolv=2.815 
eps=2.14797859684703 RhoS=0.992403372535132

   -3.123533    -0.438909     0.249907     1.700000     1.100000
   -0.634623    -0.226767    -1.083823     1.700000     1.100000
   -4.085324    -0.546070     0.738063     1.200000     1.100000
    0.336814    -0.133008    -1.549979     1.200000     1.100000
    1.109786     1.414310     0.718484     1.700000     1.100000
    0.634623     0.226767     1.083823     1.700000     1.100000
    0.519777     2.312927     0.848046     1.200000     1.100000
   -0.336814     0.133008     1.549979     1.200000     1.100000
    1.495934    -1.001134     1.028869     1.700000     1.100000
    1.973156    -1.081856     2.013692     1.200000     1.100000
    0.887322    -1.896884     0.916876     1.200000     1.100000
    2.431004     1.520477     0.106878     1.700000     1.100000
    2.838163     2.507840    -0.075868     1.200000     1.100000
    3.123533     0.438909    -0.249907     1.700000     1.100000
    4.085324     0.546070    -0.738063     1.200000     1.100000
    2.588421    -0.951995    -0.044511     1.700000     1.100000
    2.216156    -1.333084    -1.003507     1.200000     1.100000
    3.400666    -1.624754     0.238421     1.200000     1.100000
   -1.109786    -1.414310    -0.718484     1.700000     1.100000
   -0.519777    -2.312927    -0.848046     1.200000     1.100000
   -2.431004    -1.520477    -0.106878     1.700000     1.100000
   -2.838163    -2.507840     0.075868     1.200000     1.100000
   -1.495934     1.001134    -1.028869     1.700000     1.100000
   -0.887321     1.896884    -0.916876     1.200000     1.100000
   -1.973156     1.081856    -2.013692     1.200000     1.100000
   -2.588421     0.951995     0.044511     1.700000     1.100000
   -3.400666     1.624754    -0.238421     1.200000     1.100000
   -2.216156     1.333084     1.003507     1.200000     1.100000

--link1--
%chk=meso-TS_28_2_xp-105.chk
%nproc=24
%mem=48GB
#p uwb97xd guess=mix def2tzvp 
# scrf=(iefpcm,solvent=Cyclohexane,read) nosym 6d 10f 

endo-2
xp-pcm for eta=3

0 1
  6  -3.123533  -0.438909   0.249907 
  6  -0.634623  -0.226767  -1.083823 
  1  -4.085324  -0.546070   0.738063 
  1   0.336814  -0.133008  -1.549979 
  6   1.109786   1.414310   0.718484 
  6   0.634623   0.226767   1.083823 
  1   0.519777   2.312927   0.848046 
  1  -0.336814   0.133008   1.549979 
  6   1.495934  -1.001134   1.028869 
  1   1.973156  -1.081856   2.013692 
  1   0.887322  -1.896884   0.916876 
  6   2.431004   1.520477   0.106878 
  1   2.838163   2.507840  -0.075868 
  6   3.123533   0.438909  -0.249907 
  1   4.085324   0.546070  -0.738063 
  6   2.588421  -0.951995  -0.044511 
  1   2.216156  -1.333084  -1.003507 
  1   3.400666  -1.624754   0.238421 
  6  -1.109786  -1.414310  -0.718484 
  1  -0.519777  -2.312927  -0.848046 
  6  -2.431004  -1.520477  -0.106878 
  1  -2.838163  -2.507840   0.075868 
  6  -1.495934   1.001134  -1.028869 
  1  -0.887321   1.896884  -0.916876 
  1  -1.973156   1.081856  -2.013692 
  6  -2.588421   0.951995   0.044511 
  1  -3.400666   1.624754  -0.238421 
  1  -2.216156   1.333084   1.003507 

qrep pcmdoc geomview  nodis nocav g03defaults tsare=0.075 
nsfe=28
NVESolv=36  SolvMW=84.1595   Rsolv=2.815 
eps=2.22376880117094 RhoS=1.12776705486046

   -3.123533    -0.438909     0.249907     1.700000     1.050000
   -0.634623    -0.226767    -1.083823     1.700000     1.050000
   -4.085324    -0.546070     0.738063     1.200000     1.050000
    0.336814    -0.133008    -1.549979     1.200000     1.050000
    1.109786     1.414310     0.718484     1.700000     1.050000
    0.634623     0.226767     1.083823     1.700000     1.050000
    0.519777     2.312927     0.848046     1.200000     1.050000
   -0.336814     0.133008     1.549979     1.200000     1.050000
    1.495934    -1.001134     1.028869     1.700000     1.050000
    1.973156    -1.081856     2.013692     1.200000     1.050000
    0.887322    -1.896884     0.916876     1.200000     1.050000
    2.431004     1.520477     0.106878     1.700000     1.050000
    2.838163     2.507840    -0.075868     1.200000     1.050000
    3.123533     0.438909    -0.249907     1.700000     1.050000
    4.085324     0.546070    -0.738063     1.200000     1.050000
    2.588421    -0.951995    -0.044511     1.700000     1.050000
    2.216156    -1.333084    -1.003507     1.200000     1.050000
    3.400666    -1.624754     0.238421     1.200000     1.050000
   -1.109786    -1.414310    -0.718484     1.700000     1.050000
   -0.519777    -2.312927    -0.848046     1.200000     1.050000
   -2.431004    -1.520477    -0.106878     1.700000     1.050000
   -2.838163    -2.507840     0.075868     1.200000     1.050000
   -1.495934     1.001134    -1.028869     1.700000     1.050000
   -0.887321     1.896884    -0.916876     1.200000     1.050000
   -1.973156     1.081856    -2.013692     1.200000     1.050000
   -2.588421     0.951995     0.044511     1.700000     1.050000
   -3.400666     1.624754    -0.238421     1.200000     1.050000
   -2.216156     1.333084     1.003507     1.200000     1.050000

--link1--
%chk=meso-TS_28_2_xp-100.chk
%nproc=24
%mem=48GB
#p uwb97xd guess=mix def2tzvp 
# scrf=(iefpcm,solvent=Cyclohexane,read) nosym 6d 10f 

endo-2
xp-pcm for eta=3

0 1
  6  -3.123533  -0.438909   0.249907 
  6  -0.634623  -0.226767  -1.083823 
  1  -4.085324  -0.546070   0.738063 
  1   0.336814  -0.133008  -1.549979 
  6   1.109786   1.414310   0.718484 
  6   0.634623   0.226767   1.083823 
  1   0.519777   2.312927   0.848046 
  1  -0.336814   0.133008   1.549979 
  6   1.495934  -1.001134   1.028869 
  1   1.973156  -1.081856   2.013692 
  1   0.887322  -1.896884   0.916876 
  6   2.431004   1.520477   0.106878 
  1   2.838163   2.507840  -0.075868 
  6   3.123533   0.438909  -0.249907 
  1   4.085324   0.546070  -0.738063 
  6   2.588421  -0.951995  -0.044511 
  1   2.216156  -1.333084  -1.003507 
  1   3.400666  -1.624754   0.238421 
  6  -1.109786  -1.414310  -0.718484 
  1  -0.519777  -2.312927  -0.848046 
  6  -2.431004  -1.520477  -0.106878 
  1  -2.838163  -2.507840   0.075868 
  6  -1.495934   1.001134  -1.028869 
  1  -0.887321   1.896884  -0.916876 
  1  -1.973156   1.081856  -2.013692 
  6  -2.588421   0.951995   0.044511 
  1  -3.400666   1.624754  -0.238421 
  1  -2.216156   1.333084   1.003507 

qrep pcmdoc geomview  nodis nocav g03defaults tsare=0.075 
nsfe=28
NVESolv=36  SolvMW=84.1595   Rsolv=2.815 
eps=2.30480546666792 RhoS=1.28207131826017

   -3.123533    -0.438909     0.249907     1.700000     1.000000
   -0.634623    -0.226767    -1.083823     1.700000     1.000000
   -4.085324    -0.546070     0.738063     1.200000     1.000000
    0.336814    -0.133008    -1.549979     1.200000     1.000000
    1.109786     1.414310     0.718484     1.700000     1.000000
    0.634623     0.226767     1.083823     1.700000     1.000000
    0.519777     2.312927     0.848046     1.200000     1.000000
   -0.336814     0.133008     1.549979     1.200000     1.000000
    1.495934    -1.001134     1.028869     1.700000     1.000000
    1.973156    -1.081856     2.013692     1.200000     1.000000
    0.887322    -1.896884     0.916876     1.200000     1.000000
    2.431004     1.520477     0.106878     1.700000     1.000000
    2.838163     2.507840    -0.075868     1.200000     1.000000
    3.123533     0.438909    -0.249907     1.700000     1.000000
    4.085324     0.546070    -0.738063     1.200000     1.000000
    2.588421    -0.951995    -0.044511     1.700000     1.000000
    2.216156    -1.333084    -1.003507     1.200000     1.000000
    3.400666    -1.624754     0.238421     1.200000     1.000000
   -1.109786    -1.414310    -0.718484     1.700000     1.000000
   -0.519777    -2.312927    -0.848046     1.200000     1.000000
   -2.431004    -1.520477    -0.106878     1.700000     1.000000
   -2.838163    -2.507840     0.075868     1.200000     1.000000
   -1.495934     1.001134    -1.028869     1.700000     1.000000
   -0.887321     1.896884    -0.916876     1.200000     1.000000
   -1.973156     1.081856    -2.013692     1.200000     1.000000
   -2.588421     0.951995     0.044511     1.700000     1.000000
   -3.400666     1.624754    -0.238421     1.200000     1.000000
   -2.216156     1.333084     1.003507     1.200000     1.000000

--link1--
%chk=meso-TS_28_2_xp-0975.chk
%nproc=24
%mem=48GB
#p uwb97xd guess=mix def2tzvp 
# scrf=(iefpcm,solvent=Cyclohexane,read) nosym 6d 10f 

endo-2
xp-pcm for eta=3

0 1
  6  -3.123533  -0.438909   0.249907 
  6  -0.634623  -0.226767  -1.083823 
  1  -4.085324  -0.546070   0.738063 
  1   0.336814  -0.133008  -1.549979 
  6   1.109786   1.414310   0.718484 
  6   0.634623   0.226767   1.083823 
  1   0.519777   2.312927   0.848046 
  1  -0.336814   0.133008   1.549979 
  6   1.495934  -1.001134   1.028869 
  1   1.973156  -1.081856   2.013692 
  1   0.887322  -1.896884   0.916876 
  6   2.431004   1.520477   0.106878 
  1   2.838163   2.507840  -0.075868 
  6   3.123533   0.438909  -0.249907 
  1   4.085324   0.546070  -0.738063 
  6   2.588421  -0.951995  -0.044511 
  1   2.216156  -1.333084  -1.003507 
  1   3.400666  -1.624754   0.238421 
  6  -1.109786  -1.414310  -0.718484 
  1  -0.519777  -2.312927  -0.848046 
  6  -2.431004  -1.520477  -0.106878 
  1  -2.838163  -2.507840   0.075868 
  6  -1.495934   1.001134  -1.028869 
  1  -0.887321   1.896884  -0.916876 
  1  -1.973156   1.081856  -2.013692 
  6  -2.588421   0.951995   0.044511 
  1  -3.400666   1.624754  -0.238421 
  1  -2.216156   1.333084   1.003507 

qrep pcmdoc geomview  nodis nocav g03defaults tsare=0.075 
nsfe=28
NVESolv=36  SolvMW=84.1595   Rsolv=2.815 
eps=2.34745273026226 RhoS=1.36724935387803

   -3.123533    -0.438909     0.249907     1.700000     0.975000
   -0.634623    -0.226767    -1.083823     1.700000     0.975000
   -4.085324    -0.546070     0.738063     1.200000     0.975000
    0.336814    -0.133008    -1.549979     1.200000     0.975000
    1.109786     1.414310     0.718484     1.700000     0.975000
    0.634623     0.226767     1.083823     1.700000     0.975000
    0.519777     2.312927     0.848046     1.200000     0.975000
   -0.336814     0.133008     1.549979     1.200000     0.975000
    1.495934    -1.001134     1.028869     1.700000     0.975000
    1.973156    -1.081856     2.013692     1.200000     0.975000
    0.887322    -1.896884     0.916876     1.200000     0.975000
    2.431004     1.520477     0.106878     1.700000     0.975000
    2.838163     2.507840    -0.075868     1.200000     0.975000
    3.123533     0.438909    -0.249907     1.700000     0.975000
    4.085324     0.546070    -0.738063     1.200000     0.975000
    2.588421    -0.951995    -0.044511     1.700000     0.975000
    2.216156    -1.333084    -1.003507     1.200000     0.975000
    3.400666    -1.624754     0.238421     1.200000     0.975000
   -1.109786    -1.414310    -0.718484     1.700000     0.975000
   -0.519777    -2.312927    -0.848046     1.200000     0.975000
   -2.431004    -1.520477    -0.106878     1.700000     0.975000
   -2.838163    -2.507840     0.075868     1.200000     0.975000
   -1.495934     1.001134    -1.028869     1.700000     0.975000
   -0.887321     1.896884    -0.916876     1.200000     0.975000
   -1.973156     1.081856    -2.013692     1.200000     0.975000
   -2.588421     0.951995     0.044511     1.700000     0.975000
   -3.400666     1.624754    -0.238421     1.200000     0.975000
   -2.216156     1.333084     1.003507     1.200000     0.975000

--link1--
%chk=meso-TS_28_2_xp-095.chk
%nproc=24
%mem=48GB
#p uwb97xd guess=mix def2tzvp 
# scrf=(iefpcm,solvent=Cyclohexane,read) nosym 6d 10f 

endo-2
xp-pcm for eta=3

0 1
  6  -3.123533  -0.438909   0.249907 
  6  -0.634623  -0.226767  -1.083823 
  1  -4.085324  -0.546070   0.738063 
  1   0.336814  -0.133008  -1.549979 
  6   1.109786   1.414310   0.718484 
  6   0.634623   0.226767   1.083823 
  1   0.519777   2.312927   0.848046 
  1  -0.336814   0.133008   1.549979 
  6   1.495934  -1.001134   1.028869 
  1   1.973156  -1.081856   2.013692 
  1   0.887322  -1.896884   0.916876 
  6   2.431004   1.520477   0.106878 
  1   2.838163   2.507840  -0.075868 
  6   3.123533   0.438909  -0.249907 
  1   4.085324   0.546070  -0.738063 
  6   2.588421  -0.951995  -0.044511 
  1   2.216156  -1.333084  -1.003507 
  1   3.400666  -1.624754   0.238421 
  6  -1.109786  -1.414310  -0.718484 
  1  -0.519777  -2.312927  -0.848046 
  6  -2.431004  -1.520477  -0.106878 
  1  -2.838163  -2.507840   0.075868 
  6  -1.495934   1.001134  -1.028869 
  1  -0.887321   1.896884  -0.916876 
  1  -1.973156   1.081856  -2.013692 
  6  -2.588421   0.951995   0.044511 
  1  -3.400666   1.624754  -0.238421 
  1  -2.216156   1.333084   1.003507 

qrep pcmdoc geomview  nodis nocav g03defaults tsare=0.075 
nsfe=28
NVESolv=36  SolvMW=84.1595   Rsolv=2.815 
eps=2.39339884323873 RhoS=1.4620813611373

   -3.123533    -0.438909     0.249907     1.700000     0.950000
   -0.634623    -0.226767    -1.083823     1.700000     0.950000
   -4.085324    -0.546070     0.738063     1.200000     0.950000
    0.336814    -0.133008    -1.549979     1.200000     0.950000
    1.109786     1.414310     0.718484     1.700000     0.950000
    0.634623     0.226767     1.083823     1.700000     0.950000
    0.519777     2.312927     0.848046     1.200000     0.950000
   -0.336814     0.133008     1.549979     1.200000     0.950000
    1.495934    -1.001134     1.028869     1.700000     0.950000
    1.973156    -1.081856     2.013692     1.200000     0.950000
    0.887322    -1.896884     0.916876     1.200000     0.950000
    2.431004     1.520477     0.106878     1.700000     0.950000
    2.838163     2.507840    -0.075868     1.200000     0.950000
    3.123533     0.438909    -0.249907     1.700000     0.950000
    4.085324     0.546070    -0.738063     1.200000     0.950000
    2.588421    -0.951995    -0.044511     1.700000     0.950000
    2.216156    -1.333084    -1.003507     1.200000     0.950000
    3.400666    -1.624754     0.238421     1.200000     0.950000
   -1.109786    -1.414310    -0.718484     1.700000     0.950000
   -0.519777    -2.312927    -0.848046     1.200000     0.950000
   -2.431004    -1.520477    -0.106878     1.700000     0.950000
   -2.838163    -2.507840     0.075868     1.200000     0.950000
   -1.495934     1.001134    -1.028869     1.700000     0.950000
   -0.887321     1.896884    -0.916876     1.200000     0.950000
   -1.973156     1.081856    -2.013692     1.200000     0.950000
   -2.588421     0.951995     0.044511     1.700000     0.950000
   -3.400666     1.624754    -0.238421     1.200000     0.950000
   -2.216156     1.333084     1.003507     1.200000     0.950000

