%chk=meso-TS_4_1_xp-12.chk
%nproc=24
%mem=48GB
#p uwb97xd guess=mix def2tzvp 
# scrf=(iefpcm,solvent=Cyclohexane,read) nosym 6d 10f 

endo-2
xp-pcm for eta=3

0 1
  6  -3.119365  -0.429886   0.247711 
  6  -0.483238  -0.151143  -0.817662 
  1  -4.084691  -0.548341   0.724950 
  1   0.345292  -0.114825  -1.519981 
  6   1.109235   1.423870   0.678430 
  6   0.483238   0.151143   0.817662 
  1   0.550310   2.325971   0.892085 
  1  -0.345292   0.114825   1.519981 
  6   1.461352  -0.999620   0.986645 
  1   1.894943  -0.928704   1.989628 
  1   0.934187  -1.953298   0.939348 
  6   2.402996   1.524681   0.119927 
  1   2.824354   2.510372  -0.041948 
  6   3.119365   0.429886  -0.247711 
  1   4.084691   0.548341  -0.724950 
  6   2.592455  -0.958721  -0.043087 
  1   2.247288  -1.357377  -1.005814 
  1   3.401438  -1.623242   0.270678 
  6  -1.109235  -1.423870  -0.678430 
  1  -0.550310  -2.325971  -0.892085 
  6  -2.402996  -1.524681  -0.119927 
  1  -2.824354  -2.510372   0.041948 
  6  -1.461352   0.999620  -0.986645 
  1  -0.934187   1.953298  -0.939348 
  1  -1.894943   0.928704  -1.989628 
  6  -2.592455   0.958721   0.043088 
  1  -3.401438   1.623242  -0.270678 
  1  -2.247288   1.357377   1.005814 

qrep pcmdoc geomview  nodis nocav g03defaults tsare=0.075 
nsfe=28
NVESolv=36  SolvMW=84.1595   Rsolv=2.815 
eps=2.0165 RhoS=0.778099999999998

   -3.119365    -0.429886     0.247711     1.700000     1.200000
   -0.483238    -0.151143    -0.817662     1.700000     1.200000
   -4.084691    -0.548341     0.724950     1.200000     1.200000
    0.345292    -0.114825    -1.519981     1.200000     1.200000
    1.109235     1.423870     0.678430     1.700000     1.200000
    0.483238     0.151143     0.817662     1.700000     1.200000
    0.550310     2.325971     0.892085     1.200000     1.200000
   -0.345292     0.114825     1.519981     1.200000     1.200000
    1.461352    -0.999620     0.986645     1.700000     1.200000
    1.894943    -0.928704     1.989628     1.200000     1.200000
    0.934187    -1.953298     0.939348     1.200000     1.200000
    2.402996     1.524681     0.119927     1.700000     1.200000
    2.824354     2.510372    -0.041948     1.200000     1.200000
    3.119365     0.429886    -0.247711     1.700000     1.200000
    4.084691     0.548341    -0.724950     1.200000     1.200000
    2.592455    -0.958721    -0.043087     1.700000     1.200000
    2.247288    -1.357377    -1.005814     1.200000     1.200000
    3.401438    -1.623242     0.270678     1.200000     1.200000
   -1.109235    -1.423870    -0.678430     1.700000     1.200000
   -0.550310    -2.325971    -0.892085     1.200000     1.200000
   -2.402996    -1.524681    -0.119927     1.700000     1.200000
   -2.824354    -2.510372     0.041948     1.200000     1.200000
   -1.461352     0.999620    -0.986645     1.700000     1.200000
   -0.934187     1.953298    -0.939348     1.200000     1.200000
   -1.894943     0.928704    -1.989628     1.200000     1.200000
   -2.592455     0.958721     0.043088     1.700000     1.200000
   -3.401438     1.623242    -0.270678     1.200000     1.200000
   -2.247288     1.357377     1.005814     1.200000     1.200000

--link1--
%chk=meso-TS_4_1_xp-115.chk
%nproc=24
%mem=48GB
#p uwb97xd guess=mix def2tzvp 
# scrf=(iefpcm,solvent=Cyclohexane,read) nosym 6d 10f 

endo-2
xp-pcm for eta=3

0 1
  6  -3.119365  -0.429886   0.247711 
  6  -0.483238  -0.151143  -0.817662 
  1  -4.084691  -0.548341   0.724950 
  1   0.345292  -0.114825  -1.519981 
  6   1.109235   1.423870   0.678430 
  6   0.483238   0.151143   0.817662 
  1   0.550310   2.325971   0.892085 
  1  -0.345292   0.114825   1.519981 
  6   1.461352  -0.999620   0.986645 
  1   1.894943  -0.928704   1.989628 
  1   0.934187  -1.953298   0.939348 
  6   2.402996   1.524681   0.119927 
  1   2.824354   2.510372  -0.041948 
  6   3.119365   0.429886  -0.247711 
  1   4.084691   0.548341  -0.724950 
  6   2.592455  -0.958721  -0.043087 
  1   2.247288  -1.357377  -1.005814 
  1   3.401438  -1.623242   0.270678 
  6  -1.109235  -1.423870  -0.678430 
  1  -0.550310  -2.325971  -0.892085 
  6  -2.402996  -1.524681  -0.119927 
  1  -2.824354  -2.510372   0.041948 
  6  -1.461352   0.999620  -0.986645 
  1  -0.934187   1.953298  -0.939348 
  1  -1.894943   0.928704  -1.989628 
  6  -2.592455   0.958721   0.043088 
  1  -3.401438   1.623242  -0.270678 
  1  -2.247288   1.357377   1.005814 

qrep pcmdoc geomview  nodis nocav g03defaults tsare=0.075 
nsfe=28
NVESolv=36  SolvMW=84.1595   Rsolv=2.815 
eps=2.08074995319988 RhoS=0.87957140140931

   -3.119365    -0.429886     0.247711     1.700000     1.150000
   -0.483238    -0.151143    -0.817662     1.700000     1.150000
   -4.084691    -0.548341     0.724950     1.200000     1.150000
    0.345292    -0.114825    -1.519981     1.200000     1.150000
    1.109235     1.423870     0.678430     1.700000     1.150000
    0.483238     0.151143     0.817662     1.700000     1.150000
    0.550310     2.325971     0.892085     1.200000     1.150000
   -0.345292     0.114825     1.519981     1.200000     1.150000
    1.461352    -0.999620     0.986645     1.700000     1.150000
    1.894943    -0.928704     1.989628     1.200000     1.150000
    0.934187    -1.953298     0.939348     1.200000     1.150000
    2.402996     1.524681     0.119927     1.700000     1.150000
    2.824354     2.510372    -0.041948     1.200000     1.150000
    3.119365     0.429886    -0.247711     1.700000     1.150000
    4.084691     0.548341    -0.724950     1.200000     1.150000
    2.592455    -0.958721    -0.043087     1.700000     1.150000
    2.247288    -1.357377    -1.005814     1.200000     1.150000
    3.401438    -1.623242     0.270678     1.200000     1.150000
   -1.109235    -1.423870    -0.678430     1.700000     1.150000
   -0.550310    -2.325971    -0.892085     1.200000     1.150000
   -2.402996    -1.524681    -0.119927     1.700000     1.150000
   -2.824354    -2.510372     0.041948     1.200000     1.150000
   -1.461352     0.999620    -0.986645     1.700000     1.150000
   -0.934187     1.953298    -0.939348     1.200000     1.150000
   -1.894943     0.928704    -1.989628     1.200000     1.150000
   -2.592455     0.958721     0.043088     1.700000     1.150000
   -3.401438     1.623242    -0.270678     1.200000     1.150000
   -2.247288     1.357377     1.005814     1.200000     1.150000

--link1--
%chk=meso-TS_4_1_xp-110.chk
%nproc=24
%mem=48GB
#p uwb97xd guess=mix def2tzvp 
# scrf=(iefpcm,solvent=Cyclohexane,read) nosym 6d 10f 

endo-2
xp-pcm for eta=3

0 1
  6  -3.119365  -0.429886   0.247711 
  6  -0.483238  -0.151143  -0.817662 
  1  -4.084691  -0.548341   0.724950 
  1   0.345292  -0.114825  -1.519981 
  6   1.109235   1.423870   0.678430 
  6   0.483238   0.151143   0.817662 
  1   0.550310   2.325971   0.892085 
  1  -0.345292   0.114825   1.519981 
  6   1.461352  -0.999620   0.986645 
  1   1.894943  -0.928704   1.989628 
  1   0.934187  -1.953298   0.939348 
  6   2.402996   1.524681   0.119927 
  1   2.824354   2.510372  -0.041948 
  6   3.119365   0.429886  -0.247711 
  1   4.084691   0.548341  -0.724950 
  6   2.592455  -0.958721  -0.043087 
  1   2.247288  -1.357377  -1.005814 
  1   3.401438  -1.623242   0.270678 
  6  -1.109235  -1.423870  -0.678430 
  1  -0.550310  -2.325971  -0.892085 
  6  -2.402996  -1.524681  -0.119927 
  1  -2.824354  -2.510372   0.041948 
  6  -1.461352   0.999620  -0.986645 
  1  -0.934187   1.953298  -0.939348 
  1  -1.894943   0.928704  -1.989628 
  6  -2.592455   0.958721   0.043088 
  1  -3.401438   1.623242  -0.270678 
  1  -2.247288   1.357377   1.005814 

qrep pcmdoc geomview  nodis nocav g03defaults tsare=0.075 
nsfe=28
NVESolv=36  SolvMW=84.1595   Rsolv=2.815 
eps=2.14797859684703 RhoS=0.992403372535132

   -3.119365    -0.429886     0.247711     1.700000     1.100000
   -0.483238    -0.151143    -0.817662     1.700000     1.100000
   -4.084691    -0.548341     0.724950     1.200000     1.100000
    0.345292    -0.114825    -1.519981     1.200000     1.100000
    1.109235     1.423870     0.678430     1.700000     1.100000
    0.483238     0.151143     0.817662     1.700000     1.100000
    0.550310     2.325971     0.892085     1.200000     1.100000
   -0.345292     0.114825     1.519981     1.200000     1.100000
    1.461352    -0.999620     0.986645     1.700000     1.100000
    1.894943    -0.928704     1.989628     1.200000     1.100000
    0.934187    -1.953298     0.939348     1.200000     1.100000
    2.402996     1.524681     0.119927     1.700000     1.100000
    2.824354     2.510372    -0.041948     1.200000     1.100000
    3.119365     0.429886    -0.247711     1.700000     1.100000
    4.084691     0.548341    -0.724950     1.200000     1.100000
    2.592455    -0.958721    -0.043087     1.700000     1.100000
    2.247288    -1.357377    -1.005814     1.200000     1.100000
    3.401438    -1.623242     0.270678     1.200000     1.100000
   -1.109235    -1.423870    -0.678430     1.700000     1.100000
   -0.550310    -2.325971    -0.892085     1.200000     1.100000
   -2.402996    -1.524681    -0.119927     1.700000     1.100000
   -2.824354    -2.510372     0.041948     1.200000     1.100000
   -1.461352     0.999620    -0.986645     1.700000     1.100000
   -0.934187     1.953298    -0.939348     1.200000     1.100000
   -1.894943     0.928704    -1.989628     1.200000     1.100000
   -2.592455     0.958721     0.043088     1.700000     1.100000
   -3.401438     1.623242    -0.270678     1.200000     1.100000
   -2.247288     1.357377     1.005814     1.200000     1.100000

--link1--
%chk=meso-TS_4_1_xp-105.chk
%nproc=24
%mem=48GB
#p uwb97xd guess=mix def2tzvp 
# scrf=(iefpcm,solvent=Cyclohexane,read) nosym 6d 10f 

endo-2
xp-pcm for eta=3

0 1
  6  -3.119365  -0.429886   0.247711 
  6  -0.483238  -0.151143  -0.817662 
  1  -4.084691  -0.548341   0.724950 
  1   0.345292  -0.114825  -1.519981 
  6   1.109235   1.423870   0.678430 
  6   0.483238   0.151143   0.817662 
  1   0.550310   2.325971   0.892085 
  1  -0.345292   0.114825   1.519981 
  6   1.461352  -0.999620   0.986645 
  1   1.894943  -0.928704   1.989628 
  1   0.934187  -1.953298   0.939348 
  6   2.402996   1.524681   0.119927 
  1   2.824354   2.510372  -0.041948 
  6   3.119365   0.429886  -0.247711 
  1   4.084691   0.548341  -0.724950 
  6   2.592455  -0.958721  -0.043087 
  1   2.247288  -1.357377  -1.005814 
  1   3.401438  -1.623242   0.270678 
  6  -1.109235  -1.423870  -0.678430 
  1  -0.550310  -2.325971  -0.892085 
  6  -2.402996  -1.524681  -0.119927 
  1  -2.824354  -2.510372   0.041948 
  6  -1.461352   0.999620  -0.986645 
  1  -0.934187   1.953298  -0.939348 
  1  -1.894943   0.928704  -1.989628 
  6  -2.592455   0.958721   0.043088 
  1  -3.401438   1.623242  -0.270678 
  1  -2.247288   1.357377   1.005814 

qrep pcmdoc geomview  nodis nocav g03defaults tsare=0.075 
nsfe=28
NVESolv=36  SolvMW=84.1595   Rsolv=2.815 
eps=2.22376880117094 RhoS=1.12776705486046

   -3.119365    -0.429886     0.247711     1.700000     1.050000
   -0.483238    -0.151143    -0.817662     1.700000     1.050000
   -4.084691    -0.548341     0.724950     1.200000     1.050000
    0.345292    -0.114825    -1.519981     1.200000     1.050000
    1.109235     1.423870     0.678430     1.700000     1.050000
    0.483238     0.151143     0.817662     1.700000     1.050000
    0.550310     2.325971     0.892085     1.200000     1.050000
   -0.345292     0.114825     1.519981     1.200000     1.050000
    1.461352    -0.999620     0.986645     1.700000     1.050000
    1.894943    -0.928704     1.989628     1.200000     1.050000
    0.934187    -1.953298     0.939348     1.200000     1.050000
    2.402996     1.524681     0.119927     1.700000     1.050000
    2.824354     2.510372    -0.041948     1.200000     1.050000
    3.119365     0.429886    -0.247711     1.700000     1.050000
    4.084691     0.548341    -0.724950     1.200000     1.050000
    2.592455    -0.958721    -0.043087     1.700000     1.050000
    2.247288    -1.357377    -1.005814     1.200000     1.050000
    3.401438    -1.623242     0.270678     1.200000     1.050000
   -1.109235    -1.423870    -0.678430     1.700000     1.050000
   -0.550310    -2.325971    -0.892085     1.200000     1.050000
   -2.402996    -1.524681    -0.119927     1.700000     1.050000
   -2.824354    -2.510372     0.041948     1.200000     1.050000
   -1.461352     0.999620    -0.986645     1.700000     1.050000
   -0.934187     1.953298    -0.939348     1.200000     1.050000
   -1.894943     0.928704    -1.989628     1.200000     1.050000
   -2.592455     0.958721     0.043088     1.700000     1.050000
   -3.401438     1.623242    -0.270678     1.200000     1.050000
   -2.247288     1.357377     1.005814     1.200000     1.050000

--link1--
%chk=meso-TS_4_1_xp-100.chk
%nproc=24
%mem=48GB
#p uwb97xd guess=mix def2tzvp 
# scrf=(iefpcm,solvent=Cyclohexane,read) nosym 6d 10f 

endo-2
xp-pcm for eta=3

0 1
  6  -3.119365  -0.429886   0.247711 
  6  -0.483238  -0.151143  -0.817662 
  1  -4.084691  -0.548341   0.724950 
  1   0.345292  -0.114825  -1.519981 
  6   1.109235   1.423870   0.678430 
  6   0.483238   0.151143   0.817662 
  1   0.550310   2.325971   0.892085 
  1  -0.345292   0.114825   1.519981 
  6   1.461352  -0.999620   0.986645 
  1   1.894943  -0.928704   1.989628 
  1   0.934187  -1.953298   0.939348 
  6   2.402996   1.524681   0.119927 
  1   2.824354   2.510372  -0.041948 
  6   3.119365   0.429886  -0.247711 
  1   4.084691   0.548341  -0.724950 
  6   2.592455  -0.958721  -0.043087 
  1   2.247288  -1.357377  -1.005814 
  1   3.401438  -1.623242   0.270678 
  6  -1.109235  -1.423870  -0.678430 
  1  -0.550310  -2.325971  -0.892085 
  6  -2.402996  -1.524681  -0.119927 
  1  -2.824354  -2.510372   0.041948 
  6  -1.461352   0.999620  -0.986645 
  1  -0.934187   1.953298  -0.939348 
  1  -1.894943   0.928704  -1.989628 
  6  -2.592455   0.958721   0.043088 
  1  -3.401438   1.623242  -0.270678 
  1  -2.247288   1.357377   1.005814 

qrep pcmdoc geomview  nodis nocav g03defaults tsare=0.075 
nsfe=28
NVESolv=36  SolvMW=84.1595   Rsolv=2.815 
eps=2.30480546666792 RhoS=1.28207131826017

   -3.119365    -0.429886     0.247711     1.700000     1.000000
   -0.483238    -0.151143    -0.817662     1.700000     1.000000
   -4.084691    -0.548341     0.724950     1.200000     1.000000
    0.345292    -0.114825    -1.519981     1.200000     1.000000
    1.109235     1.423870     0.678430     1.700000     1.000000
    0.483238     0.151143     0.817662     1.700000     1.000000
    0.550310     2.325971     0.892085     1.200000     1.000000
   -0.345292     0.114825     1.519981     1.200000     1.000000
    1.461352    -0.999620     0.986645     1.700000     1.000000
    1.894943    -0.928704     1.989628     1.200000     1.000000
    0.934187    -1.953298     0.939348     1.200000     1.000000
    2.402996     1.524681     0.119927     1.700000     1.000000
    2.824354     2.510372    -0.041948     1.200000     1.000000
    3.119365     0.429886    -0.247711     1.700000     1.000000
    4.084691     0.548341    -0.724950     1.200000     1.000000
    2.592455    -0.958721    -0.043087     1.700000     1.000000
    2.247288    -1.357377    -1.005814     1.200000     1.000000
    3.401438    -1.623242     0.270678     1.200000     1.000000
   -1.109235    -1.423870    -0.678430     1.700000     1.000000
   -0.550310    -2.325971    -0.892085     1.200000     1.000000
   -2.402996    -1.524681    -0.119927     1.700000     1.000000
   -2.824354    -2.510372     0.041948     1.200000     1.000000
   -1.461352     0.999620    -0.986645     1.700000     1.000000
   -0.934187     1.953298    -0.939348     1.200000     1.000000
   -1.894943     0.928704    -1.989628     1.200000     1.000000
   -2.592455     0.958721     0.043088     1.700000     1.000000
   -3.401438     1.623242    -0.270678     1.200000     1.000000
   -2.247288     1.357377     1.005814     1.200000     1.000000

--link1--
%chk=meso-TS_4_1_xp-0975.chk
%nproc=24
%mem=48GB
#p uwb97xd guess=mix def2tzvp 
# scrf=(iefpcm,solvent=Cyclohexane,read) nosym 6d 10f 

endo-2
xp-pcm for eta=3

0 1
  6  -3.119365  -0.429886   0.247711 
  6  -0.483238  -0.151143  -0.817662 
  1  -4.084691  -0.548341   0.724950 
  1   0.345292  -0.114825  -1.519981 
  6   1.109235   1.423870   0.678430 
  6   0.483238   0.151143   0.817662 
  1   0.550310   2.325971   0.892085 
  1  -0.345292   0.114825   1.519981 
  6   1.461352  -0.999620   0.986645 
  1   1.894943  -0.928704   1.989628 
  1   0.934187  -1.953298   0.939348 
  6   2.402996   1.524681   0.119927 
  1   2.824354   2.510372  -0.041948 
  6   3.119365   0.429886  -0.247711 
  1   4.084691   0.548341  -0.724950 
  6   2.592455  -0.958721  -0.043087 
  1   2.247288  -1.357377  -1.005814 
  1   3.401438  -1.623242   0.270678 
  6  -1.109235  -1.423870  -0.678430 
  1  -0.550310  -2.325971  -0.892085 
  6  -2.402996  -1.524681  -0.119927 
  1  -2.824354  -2.510372   0.041948 
  6  -1.461352   0.999620  -0.986645 
  1  -0.934187   1.953298  -0.939348 
  1  -1.894943   0.928704  -1.989628 
  6  -2.592455   0.958721   0.043088 
  1  -3.401438   1.623242  -0.270678 
  1  -2.247288   1.357377   1.005814 

qrep pcmdoc geomview  nodis nocav g03defaults tsare=0.075 
nsfe=28
NVESolv=36  SolvMW=84.1595   Rsolv=2.815 
eps=2.34745273026226 RhoS=1.36724935387803

   -3.119365    -0.429886     0.247711     1.700000     0.975000
   -0.483238    -0.151143    -0.817662     1.700000     0.975000
   -4.084691    -0.548341     0.724950     1.200000     0.975000
    0.345292    -0.114825    -1.519981     1.200000     0.975000
    1.109235     1.423870     0.678430     1.700000     0.975000
    0.483238     0.151143     0.817662     1.700000     0.975000
    0.550310     2.325971     0.892085     1.200000     0.975000
   -0.345292     0.114825     1.519981     1.200000     0.975000
    1.461352    -0.999620     0.986645     1.700000     0.975000
    1.894943    -0.928704     1.989628     1.200000     0.975000
    0.934187    -1.953298     0.939348     1.200000     0.975000
    2.402996     1.524681     0.119927     1.700000     0.975000
    2.824354     2.510372    -0.041948     1.200000     0.975000
    3.119365     0.429886    -0.247711     1.700000     0.975000
    4.084691     0.548341    -0.724950     1.200000     0.975000
    2.592455    -0.958721    -0.043087     1.700000     0.975000
    2.247288    -1.357377    -1.005814     1.200000     0.975000
    3.401438    -1.623242     0.270678     1.200000     0.975000
   -1.109235    -1.423870    -0.678430     1.700000     0.975000
   -0.550310    -2.325971    -0.892085     1.200000     0.975000
   -2.402996    -1.524681    -0.119927     1.700000     0.975000
   -2.824354    -2.510372     0.041948     1.200000     0.975000
   -1.461352     0.999620    -0.986645     1.700000     0.975000
   -0.934187     1.953298    -0.939348     1.200000     0.975000
   -1.894943     0.928704    -1.989628     1.200000     0.975000
   -2.592455     0.958721     0.043088     1.700000     0.975000
   -3.401438     1.623242    -0.270678     1.200000     0.975000
   -2.247288     1.357377     1.005814     1.200000     0.975000

--link1--
%chk=meso-TS_4_1_xp-095.chk
%nproc=24
%mem=48GB
#p uwb97xd guess=mix def2tzvp 
# scrf=(iefpcm,solvent=Cyclohexane,read) nosym 6d 10f 

endo-2
xp-pcm for eta=3

0 1
  6  -3.119365  -0.429886   0.247711 
  6  -0.483238  -0.151143  -0.817662 
  1  -4.084691  -0.548341   0.724950 
  1   0.345292  -0.114825  -1.519981 
  6   1.109235   1.423870   0.678430 
  6   0.483238   0.151143   0.817662 
  1   0.550310   2.325971   0.892085 
  1  -0.345292   0.114825   1.519981 
  6   1.461352  -0.999620   0.986645 
  1   1.894943  -0.928704   1.989628 
  1   0.934187  -1.953298   0.939348 
  6   2.402996   1.524681   0.119927 
  1   2.824354   2.510372  -0.041948 
  6   3.119365   0.429886  -0.247711 
  1   4.084691   0.548341  -0.724950 
  6   2.592455  -0.958721  -0.043087 
  1   2.247288  -1.357377  -1.005814 
  1   3.401438  -1.623242   0.270678 
  6  -1.109235  -1.423870  -0.678430 
  1  -0.550310  -2.325971  -0.892085 
  6  -2.402996  -1.524681  -0.119927 
  1  -2.824354  -2.510372   0.041948 
  6  -1.461352   0.999620  -0.986645 
  1  -0.934187   1.953298  -0.939348 
  1  -1.894943   0.928704  -1.989628 
  6  -2.592455   0.958721   0.043088 
  1  -3.401438   1.623242  -0.270678 
  1  -2.247288   1.357377   1.005814 

qrep pcmdoc geomview  nodis nocav g03defaults tsare=0.075 
nsfe=28
NVESolv=36  SolvMW=84.1595   Rsolv=2.815 
eps=2.39339884323873 RhoS=1.4620813611373

   -3.119365    -0.429886     0.247711     1.700000     0.950000
   -0.483238    -0.151143    -0.817662     1.700000     0.950000
   -4.084691    -0.548341     0.724950     1.200000     0.950000
    0.345292    -0.114825    -1.519981     1.200000     0.950000
    1.109235     1.423870     0.678430     1.700000     0.950000
    0.483238     0.151143     0.817662     1.700000     0.950000
    0.550310     2.325971     0.892085     1.200000     0.950000
   -0.345292     0.114825     1.519981     1.200000     0.950000
    1.461352    -0.999620     0.986645     1.700000     0.950000
    1.894943    -0.928704     1.989628     1.200000     0.950000
    0.934187    -1.953298     0.939348     1.200000     0.950000
    2.402996     1.524681     0.119927     1.700000     0.950000
    2.824354     2.510372    -0.041948     1.200000     0.950000
    3.119365     0.429886    -0.247711     1.700000     0.950000
    4.084691     0.548341    -0.724950     1.200000     0.950000
    2.592455    -0.958721    -0.043087     1.700000     0.950000
    2.247288    -1.357377    -1.005814     1.200000     0.950000
    3.401438    -1.623242     0.270678     1.200000     0.950000
   -1.109235    -1.423870    -0.678430     1.700000     0.950000
   -0.550310    -2.325971    -0.892085     1.200000     0.950000
   -2.402996    -1.524681    -0.119927     1.700000     0.950000
   -2.824354    -2.510372     0.041948     1.200000     0.950000
   -1.461352     0.999620    -0.986645     1.700000     0.950000
   -0.934187     1.953298    -0.939348     1.200000     0.950000
   -1.894943     0.928704    -1.989628     1.200000     0.950000
   -2.592455     0.958721     0.043088     1.700000     0.950000
   -3.401438     1.623242    -0.270678     1.200000     0.950000
   -2.247288     1.357377     1.005814     1.200000     0.950000

