%nproc=24
%mem=48GB
#p uwb97xd guess=mix def2tzvp 

endo-2

0 1
  6  -3.127455  -0.441456   0.264221 
  6  -0.735116  -0.251755  -1.242429 
  1  -4.069023  -0.532809   0.793299 
  1   0.214719  -0.169796  -1.756177 
  6   1.170306   1.426310   0.796241 
  6   0.735116   0.251755   1.242429 
  1   0.577580   2.322860   0.933179 
  1  -0.214719   0.169796   1.756177 
  6   1.567967  -0.991348   1.119646 
  1   2.103480  -1.123311   2.068531 
  1   0.922591  -1.863968   1.014174 
  6   2.458460   1.530418   0.110347 
  1   2.857979   2.515723  -0.098182 
  6   3.127455   0.441456  -0.264221 
  1   4.069023   0.532809  -0.793299 
  6   2.574375  -0.938802  -0.034928 
  1   2.101402  -1.277870  -0.964798 
  1   3.386826  -1.642997   0.154407 
  6  -1.170306  -1.426310  -0.796241 
  1  -0.577580  -2.322860  -0.933179 
  6  -2.458460  -1.530418  -0.110347 
  1  -2.857979  -2.515723   0.098182 
  6  -1.567967   0.991348  -1.119646 
  1  -0.922591   1.863968  -1.014174 
  1  -2.103480   1.123311  -2.068531 
  6  -2.574375   0.938802   0.034928 
  1  -3.386826   1.642997  -0.154407 
  1  -2.101402   1.277870   0.964798 

