%nproc=24
%mem=48GB
#p uwb97xd guess=mix def2tzvp 

endo-2

0 1
  6  -3.126462  -0.440631   0.254008 
  6  -0.676306  -0.237817  -1.152856 
  1  -4.082431  -0.541217   0.754857 
  1   0.289368  -0.148348  -1.633398 
  6   1.132226   1.418865   0.746611 
  6   0.676306   0.237817   1.152856 
  1   0.539095   2.315901   0.875579 
  1  -0.289368   0.148348   1.633398 
  6   1.521439  -0.999701   1.063231 
  1   2.017277  -1.116325   2.035231 
  1   0.892302  -1.880636   0.941490 
  6   2.441027   1.525145   0.104877 
  1   2.844612   2.511799  -0.089076 
  6   3.126462   0.440631  -0.254008 
  1   4.082431   0.541217  -0.754857 
  6   2.583897  -0.946236  -0.040479 
  1   2.173350  -1.309502  -0.990714 
  1   3.397411  -1.631686   0.205452 
  6  -1.132226  -1.418865  -0.746611 
  1  -0.539095  -2.315901  -0.875579 
  6  -2.441027  -1.525145  -0.104877 
  1  -2.844612  -2.511799   0.089076 
  6  -1.521439   0.999701  -1.063231 
  1  -0.892302   1.880636  -0.941490 
  1  -2.017277   1.116325  -2.035231 
  6  -2.583898   0.946236   0.040479 
  1  -3.397411   1.631686  -0.205452 
  1  -2.173351   1.309502   0.990714 

