%nproc=24
%mem=48GB
#p uwb97xd guess=mix def2tzvp 

endo-2

0 1
  6  -3.100740  -0.436725   0.295815 
  6  -0.857979  -0.286324  -1.428905 
  1  -3.998989  -0.507198   0.898194 
  1   0.044923  -0.220426  -2.024218 
  6   1.256794   1.450448   0.922302 
  6   0.857979   0.286324   1.428905 
  1   0.679926   2.352386   1.089821 
  1  -0.044923   0.220426   2.024218 
  6   1.678016  -0.959021   1.247210 
  1   2.333558  -1.064055   2.121932 
  1   1.030749  -1.837588   1.242211 
  6   2.491654   1.537925   0.140607 
  1   2.894748   2.517041  -0.088961 
  6   3.100740   0.436725  -0.295815 
  1   3.998989   0.507198  -0.898194 
  6   2.520053  -0.925099  -0.029697 
  1   1.898127  -1.206584  -0.888225 
  1   3.312455  -1.673451   0.027707 
  6  -1.256794  -1.450448  -0.922302 
  1  -0.679926  -2.352386  -1.089821 
  6  -2.491654  -1.537925  -0.140607 
  1  -2.894748  -2.517041   0.088961 
  6  -1.678016   0.959021  -1.247210 
  1  -1.030749   1.837588  -1.242211 
  1  -2.333558   1.064055  -2.121932 
  6  -2.520053   0.925099   0.029697 
  1  -3.312455   1.673451  -0.027707 
  1  -1.898127   1.206584   0.888225 

