%chk=meso-TS_34_2_xp-12.chk
%nproc=24
%mem=48GB
#p uwb97xd guess=mix def2tzvp 
# scrf=(iefpcm,solvent=Cyclohexane,read) nosym guess=only pop=none 

endo-2
xp-pcm for eta=3

0 1
  6  -3.125400  -0.440005   0.252083 
  6  -0.659840  -0.233754  -1.126379 
  1  -4.084200  -0.543289   0.746935 
  1   0.308739  -0.142233  -1.599972 
  6   1.122664   1.417123   0.734560 
  6   0.659840   0.233754   1.126379 
  1   0.530286   2.314651   0.862502 
  1  -0.308739   0.142233   1.599972 
  6   1.510582  -1.000676   1.048954 
  1   1.998188  -1.106214   2.026331 
  1   0.888300  -1.886305   0.928530 
  6   2.436831   1.523333   0.105247 
  1   2.842008   2.510246  -0.084086 
  6   3.125400   0.440005  -0.252083 
  1   4.084200   0.543289  -0.746935 
  6   2.585867  -0.948552  -0.042215 
  1   2.191291  -1.318993  -0.996443 
  1   3.399102  -1.628770   0.218906 
  6  -1.122664  -1.417123  -0.734560 
  1  -0.530286  -2.314651  -0.862502 
  6  -2.436831  -1.523333  -0.105247 
  1  -2.842008  -2.510246   0.084086 
  6  -1.510582   1.000676  -1.048954 
  1  -0.888300   1.886305  -0.928530 
  1  -1.998187   1.106214  -2.026331 
  6  -2.585867   0.948552   0.042215 
  1  -3.399102   1.628770  -0.218906 
  1  -2.191291   1.318993   0.996443 

qrep pcmdoc geomview  nodis nocav g03defaults tsare=0.075 
nsfe=28
NVESolv=36  SolvMW=84.1595   Rsolv=2.815 
eps=2.0165 RhoS=0.7781

   -3.125400    -0.440005     0.252083     1.700000     1.200000
   -0.659840    -0.233754    -1.126379     1.700000     1.200000
   -4.084200    -0.543289     0.746935     1.200000     1.200000
    0.308739    -0.142233    -1.599972     1.200000     1.200000
    1.122664     1.417123     0.734560     1.700000     1.200000
    0.659840     0.233754     1.126379     1.700000     1.200000
    0.530286     2.314651     0.862502     1.200000     1.200000
   -0.308739     0.142233     1.599972     1.200000     1.200000
    1.510582    -1.000676     1.048954     1.700000     1.200000
    1.998188    -1.106214     2.026331     1.200000     1.200000
    0.888300    -1.886305     0.928530     1.200000     1.200000
    2.436831     1.523333     0.105247     1.700000     1.200000
    2.842008     2.510246    -0.084086     1.200000     1.200000
    3.125400     0.440005    -0.252083     1.700000     1.200000
    4.084200     0.543289    -0.746935     1.200000     1.200000
    2.585867    -0.948552    -0.042215     1.700000     1.200000
    2.191291    -1.318993    -0.996443     1.200000     1.200000
    3.399102    -1.628770     0.218906     1.200000     1.200000
   -1.122664    -1.417123    -0.734560     1.700000     1.200000
   -0.530286    -2.314651    -0.862502     1.200000     1.200000
   -2.436831    -1.523333    -0.105247     1.700000     1.200000
   -2.842008    -2.510246     0.084086     1.200000     1.200000
   -1.510582     1.000676    -1.048954     1.700000     1.200000
   -0.888300     1.886305    -0.928530     1.200000     1.200000
   -1.998187     1.106214    -2.026331     1.200000     1.200000
   -2.585867     0.948552     0.042215     1.700000     1.200000
   -3.399102     1.628770    -0.218906     1.200000     1.200000
   -2.191291     1.318993     0.996443     1.200000     1.200000

--link1--
%chk=meso-TS_34_2_xp-115.chk
%nproc=24
%mem=48GB
#p uwb97xd guess=mix def2tzvp 
# scrf=(iefpcm,solvent=Cyclohexane,read) nosym guess=only pop=none 

endo-2
xp-pcm for eta=3

0 1
  6  -3.125400  -0.440005   0.252083 
  6  -0.659840  -0.233754  -1.126379 
  1  -4.084200  -0.543289   0.746935 
  1   0.308739  -0.142233  -1.599972 
  6   1.122664   1.417123   0.734560 
  6   0.659840   0.233754   1.126379 
  1   0.530286   2.314651   0.862502 
  1  -0.308739   0.142233   1.599972 
  6   1.510582  -1.000676   1.048954 
  1   1.998188  -1.106214   2.026331 
  1   0.888300  -1.886305   0.928530 
  6   2.436831   1.523333   0.105247 
  1   2.842008   2.510246  -0.084086 
  6   3.125400   0.440005  -0.252083 
  1   4.084200   0.543289  -0.746935 
  6   2.585867  -0.948552  -0.042215 
  1   2.191291  -1.318993  -0.996443 
  1   3.399102  -1.628770   0.218906 
  6  -1.122664  -1.417123  -0.734560 
  1  -0.530286  -2.314651  -0.862502 
  6  -2.436831  -1.523333  -0.105247 
  1  -2.842008  -2.510246   0.084086 
  6  -1.510582   1.000676  -1.048954 
  1  -0.888300   1.886305  -0.928530 
  1  -1.998187   1.106214  -2.026331 
  6  -2.585867   0.948552   0.042215 
  1  -3.399102   1.628770  -0.218906 
  1  -2.191291   1.318993   0.996443 

qrep pcmdoc geomview  nodis nocav g03defaults tsare=0.075 
nsfe=28
NVESolv=36  SolvMW=84.1595   Rsolv=2.815 
eps=2.0165 RhoS=0.7781

   -3.125400    -0.440005     0.252083     1.700000     1.150000
   -0.659840    -0.233754    -1.126379     1.700000     1.150000
   -4.084200    -0.543289     0.746935     1.200000     1.150000
    0.308739    -0.142233    -1.599972     1.200000     1.150000
    1.122664     1.417123     0.734560     1.700000     1.150000
    0.659840     0.233754     1.126379     1.700000     1.150000
    0.530286     2.314651     0.862502     1.200000     1.150000
   -0.308739     0.142233     1.599972     1.200000     1.150000
    1.510582    -1.000676     1.048954     1.700000     1.150000
    1.998188    -1.106214     2.026331     1.200000     1.150000
    0.888300    -1.886305     0.928530     1.200000     1.150000
    2.436831     1.523333     0.105247     1.700000     1.150000
    2.842008     2.510246    -0.084086     1.200000     1.150000
    3.125400     0.440005    -0.252083     1.700000     1.150000
    4.084200     0.543289    -0.746935     1.200000     1.150000
    2.585867    -0.948552    -0.042215     1.700000     1.150000
    2.191291    -1.318993    -0.996443     1.200000     1.150000
    3.399102    -1.628770     0.218906     1.200000     1.150000
   -1.122664    -1.417123    -0.734560     1.700000     1.150000
   -0.530286    -2.314651    -0.862502     1.200000     1.150000
   -2.436831    -1.523333    -0.105247     1.700000     1.150000
   -2.842008    -2.510246     0.084086     1.200000     1.150000
   -1.510582     1.000676    -1.048954     1.700000     1.150000
   -0.888300     1.886305    -0.928530     1.200000     1.150000
   -1.998187     1.106214    -2.026331     1.200000     1.150000
   -2.585867     0.948552     0.042215     1.700000     1.150000
   -3.399102     1.628770    -0.218906     1.200000     1.150000
   -2.191291     1.318993     0.996443     1.200000     1.150000

--link1--
%chk=meso-TS_34_2_xp-110.chk
%nproc=24
%mem=48GB
#p uwb97xd guess=mix def2tzvp 
# scrf=(iefpcm,solvent=Cyclohexane,read) nosym guess=only pop=none 

endo-2
xp-pcm for eta=3

0 1
  6  -3.125400  -0.440005   0.252083 
  6  -0.659840  -0.233754  -1.126379 
  1  -4.084200  -0.543289   0.746935 
  1   0.308739  -0.142233  -1.599972 
  6   1.122664   1.417123   0.734560 
  6   0.659840   0.233754   1.126379 
  1   0.530286   2.314651   0.862502 
  1  -0.308739   0.142233   1.599972 
  6   1.510582  -1.000676   1.048954 
  1   1.998188  -1.106214   2.026331 
  1   0.888300  -1.886305   0.928530 
  6   2.436831   1.523333   0.105247 
  1   2.842008   2.510246  -0.084086 
  6   3.125400   0.440005  -0.252083 
  1   4.084200   0.543289  -0.746935 
  6   2.585867  -0.948552  -0.042215 
  1   2.191291  -1.318993  -0.996443 
  1   3.399102  -1.628770   0.218906 
  6  -1.122664  -1.417123  -0.734560 
  1  -0.530286  -2.314651  -0.862502 
  6  -2.436831  -1.523333  -0.105247 
  1  -2.842008  -2.510246   0.084086 
  6  -1.510582   1.000676  -1.048954 
  1  -0.888300   1.886305  -0.928530 
  1  -1.998187   1.106214  -2.026331 
  6  -2.585867   0.948552   0.042215 
  1  -3.399102   1.628770  -0.218906 
  1  -2.191291   1.318993   0.996443 

qrep pcmdoc geomview  nodis nocav g03defaults tsare=0.075 
nsfe=28
NVESolv=36  SolvMW=84.1595   Rsolv=2.815 
eps=2.0165 RhoS=0.7781

   -3.125400    -0.440005     0.252083     1.700000     1.100000
   -0.659840    -0.233754    -1.126379     1.700000     1.100000
   -4.084200    -0.543289     0.746935     1.200000     1.100000
    0.308739    -0.142233    -1.599972     1.200000     1.100000
    1.122664     1.417123     0.734560     1.700000     1.100000
    0.659840     0.233754     1.126379     1.700000     1.100000
    0.530286     2.314651     0.862502     1.200000     1.100000
   -0.308739     0.142233     1.599972     1.200000     1.100000
    1.510582    -1.000676     1.048954     1.700000     1.100000
    1.998188    -1.106214     2.026331     1.200000     1.100000
    0.888300    -1.886305     0.928530     1.200000     1.100000
    2.436831     1.523333     0.105247     1.700000     1.100000
    2.842008     2.510246    -0.084086     1.200000     1.100000
    3.125400     0.440005    -0.252083     1.700000     1.100000
    4.084200     0.543289    -0.746935     1.200000     1.100000
    2.585867    -0.948552    -0.042215     1.700000     1.100000
    2.191291    -1.318993    -0.996443     1.200000     1.100000
    3.399102    -1.628770     0.218906     1.200000     1.100000
   -1.122664    -1.417123    -0.734560     1.700000     1.100000
   -0.530286    -2.314651    -0.862502     1.200000     1.100000
   -2.436831    -1.523333    -0.105247     1.700000     1.100000
   -2.842008    -2.510246     0.084086     1.200000     1.100000
   -1.510582     1.000676    -1.048954     1.700000     1.100000
   -0.888300     1.886305    -0.928530     1.200000     1.100000
   -1.998187     1.106214    -2.026331     1.200000     1.100000
   -2.585867     0.948552     0.042215     1.700000     1.100000
   -3.399102     1.628770    -0.218906     1.200000     1.100000
   -2.191291     1.318993     0.996443     1.200000     1.100000

--link1--
%chk=meso-TS_34_2_xp-105.chk
%nproc=24
%mem=48GB
#p uwb97xd guess=mix def2tzvp 
# scrf=(iefpcm,solvent=Cyclohexane,read) nosym guess=only pop=none 

endo-2
xp-pcm for eta=3

0 1
  6  -3.125400  -0.440005   0.252083 
  6  -0.659840  -0.233754  -1.126379 
  1  -4.084200  -0.543289   0.746935 
  1   0.308739  -0.142233  -1.599972 
  6   1.122664   1.417123   0.734560 
  6   0.659840   0.233754   1.126379 
  1   0.530286   2.314651   0.862502 
  1  -0.308739   0.142233   1.599972 
  6   1.510582  -1.000676   1.048954 
  1   1.998188  -1.106214   2.026331 
  1   0.888300  -1.886305   0.928530 
  6   2.436831   1.523333   0.105247 
  1   2.842008   2.510246  -0.084086 
  6   3.125400   0.440005  -0.252083 
  1   4.084200   0.543289  -0.746935 
  6   2.585867  -0.948552  -0.042215 
  1   2.191291  -1.318993  -0.996443 
  1   3.399102  -1.628770   0.218906 
  6  -1.122664  -1.417123  -0.734560 
  1  -0.530286  -2.314651  -0.862502 
  6  -2.436831  -1.523333  -0.105247 
  1  -2.842008  -2.510246   0.084086 
  6  -1.510582   1.000676  -1.048954 
  1  -0.888300   1.886305  -0.928530 
  1  -1.998187   1.106214  -2.026331 
  6  -2.585867   0.948552   0.042215 
  1  -3.399102   1.628770  -0.218906 
  1  -2.191291   1.318993   0.996443 

qrep pcmdoc geomview  nodis nocav g03defaults tsare=0.075 
nsfe=28
NVESolv=36  SolvMW=84.1595   Rsolv=2.815 
eps=2.0165 RhoS=0.7781

   -3.125400    -0.440005     0.252083     1.700000     1.050000
   -0.659840    -0.233754    -1.126379     1.700000     1.050000
   -4.084200    -0.543289     0.746935     1.200000     1.050000
    0.308739    -0.142233    -1.599972     1.200000     1.050000
    1.122664     1.417123     0.734560     1.700000     1.050000
    0.659840     0.233754     1.126379     1.700000     1.050000
    0.530286     2.314651     0.862502     1.200000     1.050000
   -0.308739     0.142233     1.599972     1.200000     1.050000
    1.510582    -1.000676     1.048954     1.700000     1.050000
    1.998188    -1.106214     2.026331     1.200000     1.050000
    0.888300    -1.886305     0.928530     1.200000     1.050000
    2.436831     1.523333     0.105247     1.700000     1.050000
    2.842008     2.510246    -0.084086     1.200000     1.050000
    3.125400     0.440005    -0.252083     1.700000     1.050000
    4.084200     0.543289    -0.746935     1.200000     1.050000
    2.585867    -0.948552    -0.042215     1.700000     1.050000
    2.191291    -1.318993    -0.996443     1.200000     1.050000
    3.399102    -1.628770     0.218906     1.200000     1.050000
   -1.122664    -1.417123    -0.734560     1.700000     1.050000
   -0.530286    -2.314651    -0.862502     1.200000     1.050000
   -2.436831    -1.523333    -0.105247     1.700000     1.050000
   -2.842008    -2.510246     0.084086     1.200000     1.050000
   -1.510582     1.000676    -1.048954     1.700000     1.050000
   -0.888300     1.886305    -0.928530     1.200000     1.050000
   -1.998187     1.106214    -2.026331     1.200000     1.050000
   -2.585867     0.948552     0.042215     1.700000     1.050000
   -3.399102     1.628770    -0.218906     1.200000     1.050000
   -2.191291     1.318993     0.996443     1.200000     1.050000

--link1--
%chk=meso-TS_34_2_xp-100.chk
%nproc=24
%mem=48GB
#p uwb97xd guess=mix def2tzvp 
# scrf=(iefpcm,solvent=Cyclohexane,read) nosym guess=only pop=none 

endo-2
xp-pcm for eta=3

0 1
  6  -3.125400  -0.440005   0.252083 
  6  -0.659840  -0.233754  -1.126379 
  1  -4.084200  -0.543289   0.746935 
  1   0.308739  -0.142233  -1.599972 
  6   1.122664   1.417123   0.734560 
  6   0.659840   0.233754   1.126379 
  1   0.530286   2.314651   0.862502 
  1  -0.308739   0.142233   1.599972 
  6   1.510582  -1.000676   1.048954 
  1   1.998188  -1.106214   2.026331 
  1   0.888300  -1.886305   0.928530 
  6   2.436831   1.523333   0.105247 
  1   2.842008   2.510246  -0.084086 
  6   3.125400   0.440005  -0.252083 
  1   4.084200   0.543289  -0.746935 
  6   2.585867  -0.948552  -0.042215 
  1   2.191291  -1.318993  -0.996443 
  1   3.399102  -1.628770   0.218906 
  6  -1.122664  -1.417123  -0.734560 
  1  -0.530286  -2.314651  -0.862502 
  6  -2.436831  -1.523333  -0.105247 
  1  -2.842008  -2.510246   0.084086 
  6  -1.510582   1.000676  -1.048954 
  1  -0.888300   1.886305  -0.928530 
  1  -1.998187   1.106214  -2.026331 
  6  -2.585867   0.948552   0.042215 
  1  -3.399102   1.628770  -0.218906 
  1  -2.191291   1.318993   0.996443 

qrep pcmdoc geomview  nodis nocav g03defaults tsare=0.075 
nsfe=28
NVESolv=36  SolvMW=84.1595   Rsolv=2.815 
eps=2.0165 RhoS=0.7781

   -3.125400    -0.440005     0.252083     1.700000     1.000000
   -0.659840    -0.233754    -1.126379     1.700000     1.000000
   -4.084200    -0.543289     0.746935     1.200000     1.000000
    0.308739    -0.142233    -1.599972     1.200000     1.000000
    1.122664     1.417123     0.734560     1.700000     1.000000
    0.659840     0.233754     1.126379     1.700000     1.000000
    0.530286     2.314651     0.862502     1.200000     1.000000
   -0.308739     0.142233     1.599972     1.200000     1.000000
    1.510582    -1.000676     1.048954     1.700000     1.000000
    1.998188    -1.106214     2.026331     1.200000     1.000000
    0.888300    -1.886305     0.928530     1.200000     1.000000
    2.436831     1.523333     0.105247     1.700000     1.000000
    2.842008     2.510246    -0.084086     1.200000     1.000000
    3.125400     0.440005    -0.252083     1.700000     1.000000
    4.084200     0.543289    -0.746935     1.200000     1.000000
    2.585867    -0.948552    -0.042215     1.700000     1.000000
    2.191291    -1.318993    -0.996443     1.200000     1.000000
    3.399102    -1.628770     0.218906     1.200000     1.000000
   -1.122664    -1.417123    -0.734560     1.700000     1.000000
   -0.530286    -2.314651    -0.862502     1.200000     1.000000
   -2.436831    -1.523333    -0.105247     1.700000     1.000000
   -2.842008    -2.510246     0.084086     1.200000     1.000000
   -1.510582     1.000676    -1.048954     1.700000     1.000000
   -0.888300     1.886305    -0.928530     1.200000     1.000000
   -1.998187     1.106214    -2.026331     1.200000     1.000000
   -2.585867     0.948552     0.042215     1.700000     1.000000
   -3.399102     1.628770    -0.218906     1.200000     1.000000
   -2.191291     1.318993     0.996443     1.200000     1.000000

--link1--
%chk=meso-TS_34_2_xp-0975.chk
%nproc=24
%mem=48GB
#p uwb97xd guess=mix def2tzvp 
# scrf=(iefpcm,solvent=Cyclohexane,read) nosym guess=only pop=none 

endo-2
xp-pcm for eta=3

0 1
  6  -3.125400  -0.440005   0.252083 
  6  -0.659840  -0.233754  -1.126379 
  1  -4.084200  -0.543289   0.746935 
  1   0.308739  -0.142233  -1.599972 
  6   1.122664   1.417123   0.734560 
  6   0.659840   0.233754   1.126379 
  1   0.530286   2.314651   0.862502 
  1  -0.308739   0.142233   1.599972 
  6   1.510582  -1.000676   1.048954 
  1   1.998188  -1.106214   2.026331 
  1   0.888300  -1.886305   0.928530 
  6   2.436831   1.523333   0.105247 
  1   2.842008   2.510246  -0.084086 
  6   3.125400   0.440005  -0.252083 
  1   4.084200   0.543289  -0.746935 
  6   2.585867  -0.948552  -0.042215 
  1   2.191291  -1.318993  -0.996443 
  1   3.399102  -1.628770   0.218906 
  6  -1.122664  -1.417123  -0.734560 
  1  -0.530286  -2.314651  -0.862502 
  6  -2.436831  -1.523333  -0.105247 
  1  -2.842008  -2.510246   0.084086 
  6  -1.510582   1.000676  -1.048954 
  1  -0.888300   1.886305  -0.928530 
  1  -1.998187   1.106214  -2.026331 
  6  -2.585867   0.948552   0.042215 
  1  -3.399102   1.628770  -0.218906 
  1  -2.191291   1.318993   0.996443 

qrep pcmdoc geomview  nodis nocav g03defaults tsare=0.075 
nsfe=28
NVESolv=36  SolvMW=84.1595   Rsolv=2.815 
eps=2.0165 RhoS=0.7781

   -3.125400    -0.440005     0.252083     1.700000     0.975000
   -0.659840    -0.233754    -1.126379     1.700000     0.975000
   -4.084200    -0.543289     0.746935     1.200000     0.975000
    0.308739    -0.142233    -1.599972     1.200000     0.975000
    1.122664     1.417123     0.734560     1.700000     0.975000
    0.659840     0.233754     1.126379     1.700000     0.975000
    0.530286     2.314651     0.862502     1.200000     0.975000
   -0.308739     0.142233     1.599972     1.200000     0.975000
    1.510582    -1.000676     1.048954     1.700000     0.975000
    1.998188    -1.106214     2.026331     1.200000     0.975000
    0.888300    -1.886305     0.928530     1.200000     0.975000
    2.436831     1.523333     0.105247     1.700000     0.975000
    2.842008     2.510246    -0.084086     1.200000     0.975000
    3.125400     0.440005    -0.252083     1.700000     0.975000
    4.084200     0.543289    -0.746935     1.200000     0.975000
    2.585867    -0.948552    -0.042215     1.700000     0.975000
    2.191291    -1.318993    -0.996443     1.200000     0.975000
    3.399102    -1.628770     0.218906     1.200000     0.975000
   -1.122664    -1.417123    -0.734560     1.700000     0.975000
   -0.530286    -2.314651    -0.862502     1.200000     0.975000
   -2.436831    -1.523333    -0.105247     1.700000     0.975000
   -2.842008    -2.510246     0.084086     1.200000     0.975000
   -1.510582     1.000676    -1.048954     1.700000     0.975000
   -0.888300     1.886305    -0.928530     1.200000     0.975000
   -1.998187     1.106214    -2.026331     1.200000     0.975000
   -2.585867     0.948552     0.042215     1.700000     0.975000
   -3.399102     1.628770    -0.218906     1.200000     0.975000
   -2.191291     1.318993     0.996443     1.200000     0.975000

--link1--
%chk=meso-TS_34_2_xp-095.chk
%nproc=24
%mem=48GB
#p uwb97xd guess=mix def2tzvp 
# scrf=(iefpcm,solvent=Cyclohexane,read) nosym guess=only pop=none 

endo-2
xp-pcm for eta=3

0 1
  6  -3.125400  -0.440005   0.252083 
  6  -0.659840  -0.233754  -1.126379 
  1  -4.084200  -0.543289   0.746935 
  1   0.308739  -0.142233  -1.599972 
  6   1.122664   1.417123   0.734560 
  6   0.659840   0.233754   1.126379 
  1   0.530286   2.314651   0.862502 
  1  -0.308739   0.142233   1.599972 
  6   1.510582  -1.000676   1.048954 
  1   1.998188  -1.106214   2.026331 
  1   0.888300  -1.886305   0.928530 
  6   2.436831   1.523333   0.105247 
  1   2.842008   2.510246  -0.084086 
  6   3.125400   0.440005  -0.252083 
  1   4.084200   0.543289  -0.746935 
  6   2.585867  -0.948552  -0.042215 
  1   2.191291  -1.318993  -0.996443 
  1   3.399102  -1.628770   0.218906 
  6  -1.122664  -1.417123  -0.734560 
  1  -0.530286  -2.314651  -0.862502 
  6  -2.436831  -1.523333  -0.105247 
  1  -2.842008  -2.510246   0.084086 
  6  -1.510582   1.000676  -1.048954 
  1  -0.888300   1.886305  -0.928530 
  1  -1.998187   1.106214  -2.026331 
  6  -2.585867   0.948552   0.042215 
  1  -3.399102   1.628770  -0.218906 
  1  -2.191291   1.318993   0.996443 

qrep pcmdoc geomview  nodis nocav g03defaults tsare=0.075 
nsfe=28
NVESolv=36  SolvMW=84.1595   Rsolv=2.815 
eps=2.0165 RhoS=0.7781

   -3.125400    -0.440005     0.252083     1.700000     0.950000
   -0.659840    -0.233754    -1.126379     1.700000     0.950000
   -4.084200    -0.543289     0.746935     1.200000     0.950000
    0.308739    -0.142233    -1.599972     1.200000     0.950000
    1.122664     1.417123     0.734560     1.700000     0.950000
    0.659840     0.233754     1.126379     1.700000     0.950000
    0.530286     2.314651     0.862502     1.200000     0.950000
   -0.308739     0.142233     1.599972     1.200000     0.950000
    1.510582    -1.000676     1.048954     1.700000     0.950000
    1.998188    -1.106214     2.026331     1.200000     0.950000
    0.888300    -1.886305     0.928530     1.200000     0.950000
    2.436831     1.523333     0.105247     1.700000     0.950000
    2.842008     2.510246    -0.084086     1.200000     0.950000
    3.125400     0.440005    -0.252083     1.700000     0.950000
    4.084200     0.543289    -0.746935     1.200000     0.950000
    2.585867    -0.948552    -0.042215     1.700000     0.950000
    2.191291    -1.318993    -0.996443     1.200000     0.950000
    3.399102    -1.628770     0.218906     1.200000     0.950000
   -1.122664    -1.417123    -0.734560     1.700000     0.950000
   -0.530286    -2.314651    -0.862502     1.200000     0.950000
   -2.436831    -1.523333    -0.105247     1.700000     0.950000
   -2.842008    -2.510246     0.084086     1.200000     0.950000
   -1.510582     1.000676    -1.048954     1.700000     0.950000
   -0.888300     1.886305    -0.928530     1.200000     0.950000
   -1.998187     1.106214    -2.026331     1.200000     0.950000
   -2.585867     0.948552     0.042215     1.700000     0.950000
   -3.399102     1.628770    -0.218906     1.200000     0.950000
   -2.191291     1.318993     0.996443     1.200000     0.950000

