%chk=meso-TS_58_2_xp-12.chk
%nproc=24
%mem=48GB
#p uwb97xd guess=mix def2tzvp 
# scrf=(iefpcm,solvent=Cyclohexane,read) nosym guess=only pop=none 

endo-2
xp-pcm for eta=3

0 1
  6  -3.126543  -0.441233   0.268190 
  6  -0.754024  -0.256533  -1.270411 
  1  -4.062711  -0.529769   0.807219 
  1   0.190409  -0.176659  -1.794641 
  6   1.183128   1.429264   0.813376 
  6   0.754024   0.256533   1.270411 
  1   0.591290   2.326044   0.953170 
  1  -0.190409   0.176659   1.794641 
  6   1.584536  -0.987345   1.138633 
  1   2.135575  -1.119037   2.078702 
  1   0.936296  -1.859379   1.043739 
  6   2.464520   1.531740   0.114055 
  1   2.863784   2.516400  -0.097950 
  6   3.126543   0.441233  -0.268190 
  1   4.062711   0.529769  -0.807219 
  6   2.569963  -0.936686  -0.033648 
  1   2.075826  -1.268120  -0.955200 
  1   3.381182  -1.646980   0.137036 
  6  -1.183128  -1.429264  -0.813376 
  1  -0.591290  -2.326044  -0.953170 
  6  -2.464520  -1.531740  -0.114055 
  1  -2.863784  -2.516400   0.097950 
  6  -1.584536   0.987345  -1.138633 
  1  -0.936296   1.859379  -1.043739 
  1  -2.135575   1.119037  -2.078702 
  6  -2.569963   0.936686   0.033648 
  1  -3.381182   1.646980  -0.137036 
  1  -2.075826   1.268120   0.955200 

qrep pcmdoc geomview  nodis nocav g03defaults tsare=0.075 
nsfe=28
NVESolv=36  SolvMW=84.1595   Rsolv=2.815 
eps=2.0165 RhoS=0.7781

   -3.126543    -0.441233     0.268190     1.700000     1.200000
   -0.754024    -0.256533    -1.270411     1.700000     1.200000
   -4.062711    -0.529769     0.807219     1.200000     1.200000
    0.190409    -0.176659    -1.794641     1.200000     1.200000
    1.183128     1.429264     0.813376     1.700000     1.200000
    0.754024     0.256533     1.270411     1.700000     1.200000
    0.591290     2.326044     0.953170     1.200000     1.200000
   -0.190409     0.176659     1.794641     1.200000     1.200000
    1.584536    -0.987345     1.138633     1.700000     1.200000
    2.135575    -1.119037     2.078702     1.200000     1.200000
    0.936296    -1.859379     1.043739     1.200000     1.200000
    2.464520     1.531740     0.114055     1.700000     1.200000
    2.863784     2.516400    -0.097950     1.200000     1.200000
    3.126543     0.441233    -0.268190     1.700000     1.200000
    4.062711     0.529769    -0.807219     1.200000     1.200000
    2.569963    -0.936686    -0.033648     1.700000     1.200000
    2.075826    -1.268120    -0.955200     1.200000     1.200000
    3.381182    -1.646980     0.137036     1.200000     1.200000
   -1.183128    -1.429264    -0.813376     1.700000     1.200000
   -0.591290    -2.326044    -0.953170     1.200000     1.200000
   -2.464520    -1.531740    -0.114055     1.700000     1.200000
   -2.863784    -2.516400     0.097950     1.200000     1.200000
   -1.584536     0.987345    -1.138633     1.700000     1.200000
   -0.936296     1.859379    -1.043739     1.200000     1.200000
   -2.135575     1.119037    -2.078702     1.200000     1.200000
   -2.569963     0.936686     0.033648     1.700000     1.200000
   -3.381182     1.646980    -0.137036     1.200000     1.200000
   -2.075826     1.268120     0.955200     1.200000     1.200000

--link1--
%chk=meso-TS_58_2_xp-115.chk
%nproc=24
%mem=48GB
#p uwb97xd guess=mix def2tzvp 
# scrf=(iefpcm,solvent=Cyclohexane,read) nosym guess=only pop=none 

endo-2
xp-pcm for eta=3

0 1
  6  -3.126543  -0.441233   0.268190 
  6  -0.754024  -0.256533  -1.270411 
  1  -4.062711  -0.529769   0.807219 
  1   0.190409  -0.176659  -1.794641 
  6   1.183128   1.429264   0.813376 
  6   0.754024   0.256533   1.270411 
  1   0.591290   2.326044   0.953170 
  1  -0.190409   0.176659   1.794641 
  6   1.584536  -0.987345   1.138633 
  1   2.135575  -1.119037   2.078702 
  1   0.936296  -1.859379   1.043739 
  6   2.464520   1.531740   0.114055 
  1   2.863784   2.516400  -0.097950 
  6   3.126543   0.441233  -0.268190 
  1   4.062711   0.529769  -0.807219 
  6   2.569963  -0.936686  -0.033648 
  1   2.075826  -1.268120  -0.955200 
  1   3.381182  -1.646980   0.137036 
  6  -1.183128  -1.429264  -0.813376 
  1  -0.591290  -2.326044  -0.953170 
  6  -2.464520  -1.531740  -0.114055 
  1  -2.863784  -2.516400   0.097950 
  6  -1.584536   0.987345  -1.138633 
  1  -0.936296   1.859379  -1.043739 
  1  -2.135575   1.119037  -2.078702 
  6  -2.569963   0.936686   0.033648 
  1  -3.381182   1.646980  -0.137036 
  1  -2.075826   1.268120   0.955200 

qrep pcmdoc geomview  nodis nocav g03defaults tsare=0.075 
nsfe=28
NVESolv=36  SolvMW=84.1595   Rsolv=2.815 
eps=2.0165 RhoS=0.7781

   -3.126543    -0.441233     0.268190     1.700000     1.150000
   -0.754024    -0.256533    -1.270411     1.700000     1.150000
   -4.062711    -0.529769     0.807219     1.200000     1.150000
    0.190409    -0.176659    -1.794641     1.200000     1.150000
    1.183128     1.429264     0.813376     1.700000     1.150000
    0.754024     0.256533     1.270411     1.700000     1.150000
    0.591290     2.326044     0.953170     1.200000     1.150000
   -0.190409     0.176659     1.794641     1.200000     1.150000
    1.584536    -0.987345     1.138633     1.700000     1.150000
    2.135575    -1.119037     2.078702     1.200000     1.150000
    0.936296    -1.859379     1.043739     1.200000     1.150000
    2.464520     1.531740     0.114055     1.700000     1.150000
    2.863784     2.516400    -0.097950     1.200000     1.150000
    3.126543     0.441233    -0.268190     1.700000     1.150000
    4.062711     0.529769    -0.807219     1.200000     1.150000
    2.569963    -0.936686    -0.033648     1.700000     1.150000
    2.075826    -1.268120    -0.955200     1.200000     1.150000
    3.381182    -1.646980     0.137036     1.200000     1.150000
   -1.183128    -1.429264    -0.813376     1.700000     1.150000
   -0.591290    -2.326044    -0.953170     1.200000     1.150000
   -2.464520    -1.531740    -0.114055     1.700000     1.150000
   -2.863784    -2.516400     0.097950     1.200000     1.150000
   -1.584536     0.987345    -1.138633     1.700000     1.150000
   -0.936296     1.859379    -1.043739     1.200000     1.150000
   -2.135575     1.119037    -2.078702     1.200000     1.150000
   -2.569963     0.936686     0.033648     1.700000     1.150000
   -3.381182     1.646980    -0.137036     1.200000     1.150000
   -2.075826     1.268120     0.955200     1.200000     1.150000

--link1--
%chk=meso-TS_58_2_xp-110.chk
%nproc=24
%mem=48GB
#p uwb97xd guess=mix def2tzvp 
# scrf=(iefpcm,solvent=Cyclohexane,read) nosym guess=only pop=none 

endo-2
xp-pcm for eta=3

0 1
  6  -3.126543  -0.441233   0.268190 
  6  -0.754024  -0.256533  -1.270411 
  1  -4.062711  -0.529769   0.807219 
  1   0.190409  -0.176659  -1.794641 
  6   1.183128   1.429264   0.813376 
  6   0.754024   0.256533   1.270411 
  1   0.591290   2.326044   0.953170 
  1  -0.190409   0.176659   1.794641 
  6   1.584536  -0.987345   1.138633 
  1   2.135575  -1.119037   2.078702 
  1   0.936296  -1.859379   1.043739 
  6   2.464520   1.531740   0.114055 
  1   2.863784   2.516400  -0.097950 
  6   3.126543   0.441233  -0.268190 
  1   4.062711   0.529769  -0.807219 
  6   2.569963  -0.936686  -0.033648 
  1   2.075826  -1.268120  -0.955200 
  1   3.381182  -1.646980   0.137036 
  6  -1.183128  -1.429264  -0.813376 
  1  -0.591290  -2.326044  -0.953170 
  6  -2.464520  -1.531740  -0.114055 
  1  -2.863784  -2.516400   0.097950 
  6  -1.584536   0.987345  -1.138633 
  1  -0.936296   1.859379  -1.043739 
  1  -2.135575   1.119037  -2.078702 
  6  -2.569963   0.936686   0.033648 
  1  -3.381182   1.646980  -0.137036 
  1  -2.075826   1.268120   0.955200 

qrep pcmdoc geomview  nodis nocav g03defaults tsare=0.075 
nsfe=28
NVESolv=36  SolvMW=84.1595   Rsolv=2.815 
eps=2.0165 RhoS=0.7781

   -3.126543    -0.441233     0.268190     1.700000     1.100000
   -0.754024    -0.256533    -1.270411     1.700000     1.100000
   -4.062711    -0.529769     0.807219     1.200000     1.100000
    0.190409    -0.176659    -1.794641     1.200000     1.100000
    1.183128     1.429264     0.813376     1.700000     1.100000
    0.754024     0.256533     1.270411     1.700000     1.100000
    0.591290     2.326044     0.953170     1.200000     1.100000
   -0.190409     0.176659     1.794641     1.200000     1.100000
    1.584536    -0.987345     1.138633     1.700000     1.100000
    2.135575    -1.119037     2.078702     1.200000     1.100000
    0.936296    -1.859379     1.043739     1.200000     1.100000
    2.464520     1.531740     0.114055     1.700000     1.100000
    2.863784     2.516400    -0.097950     1.200000     1.100000
    3.126543     0.441233    -0.268190     1.700000     1.100000
    4.062711     0.529769    -0.807219     1.200000     1.100000
    2.569963    -0.936686    -0.033648     1.700000     1.100000
    2.075826    -1.268120    -0.955200     1.200000     1.100000
    3.381182    -1.646980     0.137036     1.200000     1.100000
   -1.183128    -1.429264    -0.813376     1.700000     1.100000
   -0.591290    -2.326044    -0.953170     1.200000     1.100000
   -2.464520    -1.531740    -0.114055     1.700000     1.100000
   -2.863784    -2.516400     0.097950     1.200000     1.100000
   -1.584536     0.987345    -1.138633     1.700000     1.100000
   -0.936296     1.859379    -1.043739     1.200000     1.100000
   -2.135575     1.119037    -2.078702     1.200000     1.100000
   -2.569963     0.936686     0.033648     1.700000     1.100000
   -3.381182     1.646980    -0.137036     1.200000     1.100000
   -2.075826     1.268120     0.955200     1.200000     1.100000

--link1--
%chk=meso-TS_58_2_xp-105.chk
%nproc=24
%mem=48GB
#p uwb97xd guess=mix def2tzvp 
# scrf=(iefpcm,solvent=Cyclohexane,read) nosym guess=only pop=none 

endo-2
xp-pcm for eta=3

0 1
  6  -3.126543  -0.441233   0.268190 
  6  -0.754024  -0.256533  -1.270411 
  1  -4.062711  -0.529769   0.807219 
  1   0.190409  -0.176659  -1.794641 
  6   1.183128   1.429264   0.813376 
  6   0.754024   0.256533   1.270411 
  1   0.591290   2.326044   0.953170 
  1  -0.190409   0.176659   1.794641 
  6   1.584536  -0.987345   1.138633 
  1   2.135575  -1.119037   2.078702 
  1   0.936296  -1.859379   1.043739 
  6   2.464520   1.531740   0.114055 
  1   2.863784   2.516400  -0.097950 
  6   3.126543   0.441233  -0.268190 
  1   4.062711   0.529769  -0.807219 
  6   2.569963  -0.936686  -0.033648 
  1   2.075826  -1.268120  -0.955200 
  1   3.381182  -1.646980   0.137036 
  6  -1.183128  -1.429264  -0.813376 
  1  -0.591290  -2.326044  -0.953170 
  6  -2.464520  -1.531740  -0.114055 
  1  -2.863784  -2.516400   0.097950 
  6  -1.584536   0.987345  -1.138633 
  1  -0.936296   1.859379  -1.043739 
  1  -2.135575   1.119037  -2.078702 
  6  -2.569963   0.936686   0.033648 
  1  -3.381182   1.646980  -0.137036 
  1  -2.075826   1.268120   0.955200 

qrep pcmdoc geomview  nodis nocav g03defaults tsare=0.075 
nsfe=28
NVESolv=36  SolvMW=84.1595   Rsolv=2.815 
eps=2.0165 RhoS=0.7781

   -3.126543    -0.441233     0.268190     1.700000     1.050000
   -0.754024    -0.256533    -1.270411     1.700000     1.050000
   -4.062711    -0.529769     0.807219     1.200000     1.050000
    0.190409    -0.176659    -1.794641     1.200000     1.050000
    1.183128     1.429264     0.813376     1.700000     1.050000
    0.754024     0.256533     1.270411     1.700000     1.050000
    0.591290     2.326044     0.953170     1.200000     1.050000
   -0.190409     0.176659     1.794641     1.200000     1.050000
    1.584536    -0.987345     1.138633     1.700000     1.050000
    2.135575    -1.119037     2.078702     1.200000     1.050000
    0.936296    -1.859379     1.043739     1.200000     1.050000
    2.464520     1.531740     0.114055     1.700000     1.050000
    2.863784     2.516400    -0.097950     1.200000     1.050000
    3.126543     0.441233    -0.268190     1.700000     1.050000
    4.062711     0.529769    -0.807219     1.200000     1.050000
    2.569963    -0.936686    -0.033648     1.700000     1.050000
    2.075826    -1.268120    -0.955200     1.200000     1.050000
    3.381182    -1.646980     0.137036     1.200000     1.050000
   -1.183128    -1.429264    -0.813376     1.700000     1.050000
   -0.591290    -2.326044    -0.953170     1.200000     1.050000
   -2.464520    -1.531740    -0.114055     1.700000     1.050000
   -2.863784    -2.516400     0.097950     1.200000     1.050000
   -1.584536     0.987345    -1.138633     1.700000     1.050000
   -0.936296     1.859379    -1.043739     1.200000     1.050000
   -2.135575     1.119037    -2.078702     1.200000     1.050000
   -2.569963     0.936686     0.033648     1.700000     1.050000
   -3.381182     1.646980    -0.137036     1.200000     1.050000
   -2.075826     1.268120     0.955200     1.200000     1.050000

--link1--
%chk=meso-TS_58_2_xp-100.chk
%nproc=24
%mem=48GB
#p uwb97xd guess=mix def2tzvp 
# scrf=(iefpcm,solvent=Cyclohexane,read) nosym guess=only pop=none 

endo-2
xp-pcm for eta=3

0 1
  6  -3.126543  -0.441233   0.268190 
  6  -0.754024  -0.256533  -1.270411 
  1  -4.062711  -0.529769   0.807219 
  1   0.190409  -0.176659  -1.794641 
  6   1.183128   1.429264   0.813376 
  6   0.754024   0.256533   1.270411 
  1   0.591290   2.326044   0.953170 
  1  -0.190409   0.176659   1.794641 
  6   1.584536  -0.987345   1.138633 
  1   2.135575  -1.119037   2.078702 
  1   0.936296  -1.859379   1.043739 
  6   2.464520   1.531740   0.114055 
  1   2.863784   2.516400  -0.097950 
  6   3.126543   0.441233  -0.268190 
  1   4.062711   0.529769  -0.807219 
  6   2.569963  -0.936686  -0.033648 
  1   2.075826  -1.268120  -0.955200 
  1   3.381182  -1.646980   0.137036 
  6  -1.183128  -1.429264  -0.813376 
  1  -0.591290  -2.326044  -0.953170 
  6  -2.464520  -1.531740  -0.114055 
  1  -2.863784  -2.516400   0.097950 
  6  -1.584536   0.987345  -1.138633 
  1  -0.936296   1.859379  -1.043739 
  1  -2.135575   1.119037  -2.078702 
  6  -2.569963   0.936686   0.033648 
  1  -3.381182   1.646980  -0.137036 
  1  -2.075826   1.268120   0.955200 

qrep pcmdoc geomview  nodis nocav g03defaults tsare=0.075 
nsfe=28
NVESolv=36  SolvMW=84.1595   Rsolv=2.815 
eps=2.0165 RhoS=0.7781

   -3.126543    -0.441233     0.268190     1.700000     1.000000
   -0.754024    -0.256533    -1.270411     1.700000     1.000000
   -4.062711    -0.529769     0.807219     1.200000     1.000000
    0.190409    -0.176659    -1.794641     1.200000     1.000000
    1.183128     1.429264     0.813376     1.700000     1.000000
    0.754024     0.256533     1.270411     1.700000     1.000000
    0.591290     2.326044     0.953170     1.200000     1.000000
   -0.190409     0.176659     1.794641     1.200000     1.000000
    1.584536    -0.987345     1.138633     1.700000     1.000000
    2.135575    -1.119037     2.078702     1.200000     1.000000
    0.936296    -1.859379     1.043739     1.200000     1.000000
    2.464520     1.531740     0.114055     1.700000     1.000000
    2.863784     2.516400    -0.097950     1.200000     1.000000
    3.126543     0.441233    -0.268190     1.700000     1.000000
    4.062711     0.529769    -0.807219     1.200000     1.000000
    2.569963    -0.936686    -0.033648     1.700000     1.000000
    2.075826    -1.268120    -0.955200     1.200000     1.000000
    3.381182    -1.646980     0.137036     1.200000     1.000000
   -1.183128    -1.429264    -0.813376     1.700000     1.000000
   -0.591290    -2.326044    -0.953170     1.200000     1.000000
   -2.464520    -1.531740    -0.114055     1.700000     1.000000
   -2.863784    -2.516400     0.097950     1.200000     1.000000
   -1.584536     0.987345    -1.138633     1.700000     1.000000
   -0.936296     1.859379    -1.043739     1.200000     1.000000
   -2.135575     1.119037    -2.078702     1.200000     1.000000
   -2.569963     0.936686     0.033648     1.700000     1.000000
   -3.381182     1.646980    -0.137036     1.200000     1.000000
   -2.075826     1.268120     0.955200     1.200000     1.000000

--link1--
%chk=meso-TS_58_2_xp-0975.chk
%nproc=24
%mem=48GB
#p uwb97xd guess=mix def2tzvp 
# scrf=(iefpcm,solvent=Cyclohexane,read) nosym guess=only pop=none 

endo-2
xp-pcm for eta=3

0 1
  6  -3.126543  -0.441233   0.268190 
  6  -0.754024  -0.256533  -1.270411 
  1  -4.062711  -0.529769   0.807219 
  1   0.190409  -0.176659  -1.794641 
  6   1.183128   1.429264   0.813376 
  6   0.754024   0.256533   1.270411 
  1   0.591290   2.326044   0.953170 
  1  -0.190409   0.176659   1.794641 
  6   1.584536  -0.987345   1.138633 
  1   2.135575  -1.119037   2.078702 
  1   0.936296  -1.859379   1.043739 
  6   2.464520   1.531740   0.114055 
  1   2.863784   2.516400  -0.097950 
  6   3.126543   0.441233  -0.268190 
  1   4.062711   0.529769  -0.807219 
  6   2.569963  -0.936686  -0.033648 
  1   2.075826  -1.268120  -0.955200 
  1   3.381182  -1.646980   0.137036 
  6  -1.183128  -1.429264  -0.813376 
  1  -0.591290  -2.326044  -0.953170 
  6  -2.464520  -1.531740  -0.114055 
  1  -2.863784  -2.516400   0.097950 
  6  -1.584536   0.987345  -1.138633 
  1  -0.936296   1.859379  -1.043739 
  1  -2.135575   1.119037  -2.078702 
  6  -2.569963   0.936686   0.033648 
  1  -3.381182   1.646980  -0.137036 
  1  -2.075826   1.268120   0.955200 

qrep pcmdoc geomview  nodis nocav g03defaults tsare=0.075 
nsfe=28
NVESolv=36  SolvMW=84.1595   Rsolv=2.815 
eps=2.0165 RhoS=0.7781

   -3.126543    -0.441233     0.268190     1.700000     0.975000
   -0.754024    -0.256533    -1.270411     1.700000     0.975000
   -4.062711    -0.529769     0.807219     1.200000     0.975000
    0.190409    -0.176659    -1.794641     1.200000     0.975000
    1.183128     1.429264     0.813376     1.700000     0.975000
    0.754024     0.256533     1.270411     1.700000     0.975000
    0.591290     2.326044     0.953170     1.200000     0.975000
   -0.190409     0.176659     1.794641     1.200000     0.975000
    1.584536    -0.987345     1.138633     1.700000     0.975000
    2.135575    -1.119037     2.078702     1.200000     0.975000
    0.936296    -1.859379     1.043739     1.200000     0.975000
    2.464520     1.531740     0.114055     1.700000     0.975000
    2.863784     2.516400    -0.097950     1.200000     0.975000
    3.126543     0.441233    -0.268190     1.700000     0.975000
    4.062711     0.529769    -0.807219     1.200000     0.975000
    2.569963    -0.936686    -0.033648     1.700000     0.975000
    2.075826    -1.268120    -0.955200     1.200000     0.975000
    3.381182    -1.646980     0.137036     1.200000     0.975000
   -1.183128    -1.429264    -0.813376     1.700000     0.975000
   -0.591290    -2.326044    -0.953170     1.200000     0.975000
   -2.464520    -1.531740    -0.114055     1.700000     0.975000
   -2.863784    -2.516400     0.097950     1.200000     0.975000
   -1.584536     0.987345    -1.138633     1.700000     0.975000
   -0.936296     1.859379    -1.043739     1.200000     0.975000
   -2.135575     1.119037    -2.078702     1.200000     0.975000
   -2.569963     0.936686     0.033648     1.700000     0.975000
   -3.381182     1.646980    -0.137036     1.200000     0.975000
   -2.075826     1.268120     0.955200     1.200000     0.975000

--link1--
%chk=meso-TS_58_2_xp-095.chk
%nproc=24
%mem=48GB
#p uwb97xd guess=mix def2tzvp 
# scrf=(iefpcm,solvent=Cyclohexane,read) nosym guess=only pop=none 

endo-2
xp-pcm for eta=3

0 1
  6  -3.126543  -0.441233   0.268190 
  6  -0.754024  -0.256533  -1.270411 
  1  -4.062711  -0.529769   0.807219 
  1   0.190409  -0.176659  -1.794641 
  6   1.183128   1.429264   0.813376 
  6   0.754024   0.256533   1.270411 
  1   0.591290   2.326044   0.953170 
  1  -0.190409   0.176659   1.794641 
  6   1.584536  -0.987345   1.138633 
  1   2.135575  -1.119037   2.078702 
  1   0.936296  -1.859379   1.043739 
  6   2.464520   1.531740   0.114055 
  1   2.863784   2.516400  -0.097950 
  6   3.126543   0.441233  -0.268190 
  1   4.062711   0.529769  -0.807219 
  6   2.569963  -0.936686  -0.033648 
  1   2.075826  -1.268120  -0.955200 
  1   3.381182  -1.646980   0.137036 
  6  -1.183128  -1.429264  -0.813376 
  1  -0.591290  -2.326044  -0.953170 
  6  -2.464520  -1.531740  -0.114055 
  1  -2.863784  -2.516400   0.097950 
  6  -1.584536   0.987345  -1.138633 
  1  -0.936296   1.859379  -1.043739 
  1  -2.135575   1.119037  -2.078702 
  6  -2.569963   0.936686   0.033648 
  1  -3.381182   1.646980  -0.137036 
  1  -2.075826   1.268120   0.955200 

qrep pcmdoc geomview  nodis nocav g03defaults tsare=0.075 
nsfe=28
NVESolv=36  SolvMW=84.1595   Rsolv=2.815 
eps=2.0165 RhoS=0.7781

   -3.126543    -0.441233     0.268190     1.700000     0.950000
   -0.754024    -0.256533    -1.270411     1.700000     0.950000
   -4.062711    -0.529769     0.807219     1.200000     0.950000
    0.190409    -0.176659    -1.794641     1.200000     0.950000
    1.183128     1.429264     0.813376     1.700000     0.950000
    0.754024     0.256533     1.270411     1.700000     0.950000
    0.591290     2.326044     0.953170     1.200000     0.950000
   -0.190409     0.176659     1.794641     1.200000     0.950000
    1.584536    -0.987345     1.138633     1.700000     0.950000
    2.135575    -1.119037     2.078702     1.200000     0.950000
    0.936296    -1.859379     1.043739     1.200000     0.950000
    2.464520     1.531740     0.114055     1.700000     0.950000
    2.863784     2.516400    -0.097950     1.200000     0.950000
    3.126543     0.441233    -0.268190     1.700000     0.950000
    4.062711     0.529769    -0.807219     1.200000     0.950000
    2.569963    -0.936686    -0.033648     1.700000     0.950000
    2.075826    -1.268120    -0.955200     1.200000     0.950000
    3.381182    -1.646980     0.137036     1.200000     0.950000
   -1.183128    -1.429264    -0.813376     1.700000     0.950000
   -0.591290    -2.326044    -0.953170     1.200000     0.950000
   -2.464520    -1.531740    -0.114055     1.700000     0.950000
   -2.863784    -2.516400     0.097950     1.200000     0.950000
   -1.584536     0.987345    -1.138633     1.700000     0.950000
   -0.936296     1.859379    -1.043739     1.200000     0.950000
   -2.135575     1.119037    -2.078702     1.200000     0.950000
   -2.569963     0.936686     0.033648     1.700000     0.950000
   -3.381182     1.646980    -0.137036     1.200000     0.950000
   -2.075826     1.268120     0.955200     1.200000     0.950000

