%nproc=24
%mem=48GB
#p uwb97xd guess=mix def2tzvp 

endo-2

0 1
  6  -3.113922  -0.438394   0.286407 
  6  -0.832265  -0.277852  -1.385923 
  1  -4.024200  -0.513870   0.869840 
  1   0.083999  -0.207576  -1.959790 
  6   1.238731   1.444104   0.891084 
  6   0.832265   0.277852   1.385923 
  1   0.655396   2.343821   1.047770 
  1  -0.083999   0.207576   1.959790 
  6   1.657610  -0.966037   1.220446 
  1   2.286024  -1.076085   2.114108 
  1   1.010021  -1.843896   1.192047 
  6   2.488725   1.536531   0.134525 
  1   2.890840   2.517424  -0.089135 
  6   3.113922   0.438394  -0.286407 
  1   4.024200   0.513870  -0.869840 
  6   2.538723  -0.927782  -0.030307 
  1   1.948954  -1.221497  -0.907290 
  1   3.337092  -1.667051   0.055826 
  6  -1.238731  -1.444104  -0.891084 
  1  -0.655396  -2.343821  -1.047770 
  6  -2.488725  -1.536531  -0.134525 
  1  -2.890840  -2.517424   0.089135 
  6  -1.657610   0.966037  -1.220446 
  1  -1.010021   1.843896  -1.192047 
  1  -2.286024   1.076085  -2.114108 
  6  -2.538723   0.927782   0.030307 
  1  -3.337092   1.667051  -0.055826 
  1  -1.948954   1.221497   0.907290 

