%nproc=24
%mem=48GB
#p uwb97xd guess=mix def2tzvp 

endo-2

0 1
  6  -3.126686  -0.440765   0.254551 
  6  -0.680372  -0.238804  -1.159283 
  1  -4.081853  -0.540684   0.757063 
  1   0.284491  -0.149869  -1.641691 
  6   1.134683   1.419310   0.749737 
  6   0.680372   0.238804   1.159283 
  1   0.541420   2.316243   0.879071 
  1  -0.284491   0.149869   1.641691 
  6   1.524273  -0.999369   1.066884 
  1   2.022333  -1.118232   2.037481 
  1   0.893519  -1.879256   0.945137 
  6   2.442116   1.525573   0.104909 
  1   2.845305   2.512160  -0.090191 
  6   3.126686   0.440765  -0.254551 
  1   4.081853   0.540684  -0.757063 
  6   2.583370  -0.945671  -0.040049 
  1   2.168743  -1.307171  -0.989185 
  1   3.396910  -1.632431   0.202060 
  6  -1.134683  -1.419310  -0.749737 
  1  -0.541420  -2.316243  -0.879071 
  6  -2.442116  -1.525573  -0.104909 
  1  -2.845305  -2.512160   0.090191 
  6  -1.524273   0.999369  -1.066884 
  1  -0.893519   1.879256  -0.945137 
  1  -2.022333   1.118232  -2.037481 
  6  -2.583370   0.945671   0.040049 
  1  -3.396910   1.632431  -0.202060 
  1  -2.168743   1.307171   0.989185 

