%nproc=24
%mem=48GB
#p uwb97xd guess=mix def2tzvp 

endo-2

0 1
  6  -3.115030  -0.438560   0.285445 
  6  -0.828832  -0.276745  -1.380600 
  1  -4.026619  -0.514692   0.866746 
  1   0.088953  -0.205930  -1.951950 
  6   1.236290   1.443298   0.887382 
  6   0.828832   0.276745   1.380600 
  1   0.652342   2.342795   1.043029 
  1  -0.088953   0.205930   1.951950 
  6   1.654704  -0.967003   1.216943 
  1   2.279712  -1.077701   2.112893 
  1   1.007187  -1.844793   1.185737 
  6   2.487931   1.536308   0.133650 
  1   2.889851   2.517413  -0.089428 
  6   3.115030   0.438560  -0.285445 
  1   4.026619   0.514692  -0.866746 
  6   2.540720  -0.928204  -0.030413 
  1   1.955227  -1.223717  -0.909655 
  1   3.339904  -1.666148   0.059554 
  6  -1.236290  -1.443298  -0.887382 
  1  -0.652342  -2.342795  -1.043029 
  6  -2.487931  -1.536308  -0.133650 
  1  -2.889851  -2.517413   0.089428 
  6  -1.654704   0.967003  -1.216943 
  1  -1.007187   1.844793  -1.185737 
  1  -2.279712   1.077701  -2.112893 
  6  -2.540720   0.928204   0.030413 
  1  -3.339904   1.666148  -0.059554 
  1  -1.955227   1.223717   0.909655 

