%nproc=24
%mem=48GB
#p uwb97xd guess=mix def2tzvp 

endo-2

0 1
  6  -3.096033  -0.436252   0.298791 
  6  -0.864001  -0.288246  -1.439956 
  1  -3.990770  -0.505607   0.906505 
  1   0.034998  -0.223533  -2.041315 
  6   1.260664   1.451882   0.930420 
  6   0.864001   0.288246   1.439956 
  1   0.685695   2.354409   1.101287 
  1  -0.034998   0.223533   2.041315 
  6   1.682073  -0.957720   1.253480 
  1   2.343788  -1.062640   2.123579 
  1   1.034353  -1.835986   1.253347 
  6   2.490990   1.538156   0.141465 
  1   2.893876   2.516854  -0.090232 
  6   3.096033   0.436252  -0.298791 
  1   3.990770   0.505607  -0.906505 
  6   2.514789  -0.924666  -0.029468 
  1   1.885584  -1.203972  -0.883359 
  1   3.306056  -1.674678   0.021465 
  6  -1.260664  -1.451882  -0.930420 
  1  -0.685695  -2.354409  -1.101287 
  6  -2.490990  -1.538156  -0.141465 
  1  -2.893876  -2.516854   0.090232 
  6  -1.682073   0.957720  -1.253480 
  1  -1.034353   1.835986  -1.253347 
  1  -2.343788   1.062640  -2.123579 
  6  -2.514789   0.924666   0.029468 
  1  -3.306056   1.674678  -0.021465 
  1  -1.885584   1.203972   0.883359 

