%chk=meso-TS_7_1_xp-12.chk
%nproc=24
%mem=48GB
#p uwb97xd guess=mix def2tzvp 
# scrf=(iefpcm,solvent=Cyclohexane,read) nosym guess=only pop=none 

endo-2
xp-pcm for eta=3

0 1
  6  -3.119623  -0.428287   0.247977 
  6  -0.467744  -0.142247  -0.792389 
  1  -4.085353  -0.547852   0.723900 
  1   0.337990  -0.113517  -1.523464 
  6   1.112786   1.427748   0.675736 
  6   0.467744   0.142247   0.792389 
  1   0.556231   2.329182   0.898405 
  1  -0.337990   0.113517   1.523464 
  6   1.459612  -0.999280   0.985076 
  1   1.889507  -0.917784   1.988422 
  1   0.939242  -1.957153   0.942698 
  6   2.400074   1.526641   0.121689 
  1   2.824822   2.511480  -0.037221 
  6   3.119623   0.428287  -0.247977 
  1   4.085353   0.547852  -0.723900 
  6   2.592636  -0.958956  -0.042799 
  1   2.246423  -1.357949  -1.005214 
  1   3.401580  -1.623929   0.270629 
  6  -1.112786  -1.427748  -0.675736 
  1  -0.556231  -2.329182  -0.898405 
  6  -2.400074  -1.526641  -0.121689 
  1  -2.824822  -2.511480   0.037221 
  6  -1.459612   0.999279  -0.985076 
  1  -0.939242   1.957153  -0.942698 
  1  -1.889507   0.917784  -1.988422 
  6  -2.592636   0.958956   0.042799 
  1  -3.401580   1.623929  -0.270628 
  1  -2.246422   1.357949   1.005214 

qrep pcmdoc geomview  nodis nocav g03defaults tsare=0.075 
nsfe=28
NVESolv=36  SolvMW=84.1595   Rsolv=2.815 
eps=2.0165 RhoS=0.7781

   -3.119623    -0.428287     0.247977     1.700000     1.200000
   -0.467744    -0.142247    -0.792389     1.700000     1.200000
   -4.085353    -0.547852     0.723900     1.200000     1.200000
    0.337990    -0.113517    -1.523464     1.200000     1.200000
    1.112786     1.427748     0.675736     1.700000     1.200000
    0.467744     0.142247     0.792389     1.700000     1.200000
    0.556231     2.329182     0.898405     1.200000     1.200000
   -0.337990     0.113517     1.523464     1.200000     1.200000
    1.459612    -0.999280     0.985076     1.700000     1.200000
    1.889507    -0.917784     1.988422     1.200000     1.200000
    0.939242    -1.957153     0.942698     1.200000     1.200000
    2.400074     1.526641     0.121689     1.700000     1.200000
    2.824822     2.511480    -0.037221     1.200000     1.200000
    3.119623     0.428287    -0.247977     1.700000     1.200000
    4.085353     0.547852    -0.723900     1.200000     1.200000
    2.592636    -0.958956    -0.042799     1.700000     1.200000
    2.246423    -1.357949    -1.005214     1.200000     1.200000
    3.401580    -1.623929     0.270629     1.200000     1.200000
   -1.112786    -1.427748    -0.675736     1.700000     1.200000
   -0.556231    -2.329182    -0.898405     1.200000     1.200000
   -2.400074    -1.526641    -0.121689     1.700000     1.200000
   -2.824822    -2.511480     0.037221     1.200000     1.200000
   -1.459612     0.999279    -0.985076     1.700000     1.200000
   -0.939242     1.957153    -0.942698     1.200000     1.200000
   -1.889507     0.917784    -1.988422     1.200000     1.200000
   -2.592636     0.958956     0.042799     1.700000     1.200000
   -3.401580     1.623929    -0.270628     1.200000     1.200000
   -2.246422     1.357949     1.005214     1.200000     1.200000

--link1--
%chk=meso-TS_7_1_xp-115.chk
%nproc=24
%mem=48GB
#p uwb97xd guess=mix def2tzvp 
# scrf=(iefpcm,solvent=Cyclohexane,read) nosym guess=only pop=none 

endo-2
xp-pcm for eta=3

0 1
  6  -3.119623  -0.428287   0.247977 
  6  -0.467744  -0.142247  -0.792389 
  1  -4.085353  -0.547852   0.723900 
  1   0.337990  -0.113517  -1.523464 
  6   1.112786   1.427748   0.675736 
  6   0.467744   0.142247   0.792389 
  1   0.556231   2.329182   0.898405 
  1  -0.337990   0.113517   1.523464 
  6   1.459612  -0.999280   0.985076 
  1   1.889507  -0.917784   1.988422 
  1   0.939242  -1.957153   0.942698 
  6   2.400074   1.526641   0.121689 
  1   2.824822   2.511480  -0.037221 
  6   3.119623   0.428287  -0.247977 
  1   4.085353   0.547852  -0.723900 
  6   2.592636  -0.958956  -0.042799 
  1   2.246423  -1.357949  -1.005214 
  1   3.401580  -1.623929   0.270629 
  6  -1.112786  -1.427748  -0.675736 
  1  -0.556231  -2.329182  -0.898405 
  6  -2.400074  -1.526641  -0.121689 
  1  -2.824822  -2.511480   0.037221 
  6  -1.459612   0.999279  -0.985076 
  1  -0.939242   1.957153  -0.942698 
  1  -1.889507   0.917784  -1.988422 
  6  -2.592636   0.958956   0.042799 
  1  -3.401580   1.623929  -0.270628 
  1  -2.246422   1.357949   1.005214 

qrep pcmdoc geomview  nodis nocav g03defaults tsare=0.075 
nsfe=28
NVESolv=36  SolvMW=84.1595   Rsolv=2.815 
eps=2.0165 RhoS=0.7781

   -3.119623    -0.428287     0.247977     1.700000     1.150000
   -0.467744    -0.142247    -0.792389     1.700000     1.150000
   -4.085353    -0.547852     0.723900     1.200000     1.150000
    0.337990    -0.113517    -1.523464     1.200000     1.150000
    1.112786     1.427748     0.675736     1.700000     1.150000
    0.467744     0.142247     0.792389     1.700000     1.150000
    0.556231     2.329182     0.898405     1.200000     1.150000
   -0.337990     0.113517     1.523464     1.200000     1.150000
    1.459612    -0.999280     0.985076     1.700000     1.150000
    1.889507    -0.917784     1.988422     1.200000     1.150000
    0.939242    -1.957153     0.942698     1.200000     1.150000
    2.400074     1.526641     0.121689     1.700000     1.150000
    2.824822     2.511480    -0.037221     1.200000     1.150000
    3.119623     0.428287    -0.247977     1.700000     1.150000
    4.085353     0.547852    -0.723900     1.200000     1.150000
    2.592636    -0.958956    -0.042799     1.700000     1.150000
    2.246423    -1.357949    -1.005214     1.200000     1.150000
    3.401580    -1.623929     0.270629     1.200000     1.150000
   -1.112786    -1.427748    -0.675736     1.700000     1.150000
   -0.556231    -2.329182    -0.898405     1.200000     1.150000
   -2.400074    -1.526641    -0.121689     1.700000     1.150000
   -2.824822    -2.511480     0.037221     1.200000     1.150000
   -1.459612     0.999279    -0.985076     1.700000     1.150000
   -0.939242     1.957153    -0.942698     1.200000     1.150000
   -1.889507     0.917784    -1.988422     1.200000     1.150000
   -2.592636     0.958956     0.042799     1.700000     1.150000
   -3.401580     1.623929    -0.270628     1.200000     1.150000
   -2.246422     1.357949     1.005214     1.200000     1.150000

--link1--
%chk=meso-TS_7_1_xp-110.chk
%nproc=24
%mem=48GB
#p uwb97xd guess=mix def2tzvp 
# scrf=(iefpcm,solvent=Cyclohexane,read) nosym guess=only pop=none 

endo-2
xp-pcm for eta=3

0 1
  6  -3.119623  -0.428287   0.247977 
  6  -0.467744  -0.142247  -0.792389 
  1  -4.085353  -0.547852   0.723900 
  1   0.337990  -0.113517  -1.523464 
  6   1.112786   1.427748   0.675736 
  6   0.467744   0.142247   0.792389 
  1   0.556231   2.329182   0.898405 
  1  -0.337990   0.113517   1.523464 
  6   1.459612  -0.999280   0.985076 
  1   1.889507  -0.917784   1.988422 
  1   0.939242  -1.957153   0.942698 
  6   2.400074   1.526641   0.121689 
  1   2.824822   2.511480  -0.037221 
  6   3.119623   0.428287  -0.247977 
  1   4.085353   0.547852  -0.723900 
  6   2.592636  -0.958956  -0.042799 
  1   2.246423  -1.357949  -1.005214 
  1   3.401580  -1.623929   0.270629 
  6  -1.112786  -1.427748  -0.675736 
  1  -0.556231  -2.329182  -0.898405 
  6  -2.400074  -1.526641  -0.121689 
  1  -2.824822  -2.511480   0.037221 
  6  -1.459612   0.999279  -0.985076 
  1  -0.939242   1.957153  -0.942698 
  1  -1.889507   0.917784  -1.988422 
  6  -2.592636   0.958956   0.042799 
  1  -3.401580   1.623929  -0.270628 
  1  -2.246422   1.357949   1.005214 

qrep pcmdoc geomview  nodis nocav g03defaults tsare=0.075 
nsfe=28
NVESolv=36  SolvMW=84.1595   Rsolv=2.815 
eps=2.0165 RhoS=0.7781

   -3.119623    -0.428287     0.247977     1.700000     1.100000
   -0.467744    -0.142247    -0.792389     1.700000     1.100000
   -4.085353    -0.547852     0.723900     1.200000     1.100000
    0.337990    -0.113517    -1.523464     1.200000     1.100000
    1.112786     1.427748     0.675736     1.700000     1.100000
    0.467744     0.142247     0.792389     1.700000     1.100000
    0.556231     2.329182     0.898405     1.200000     1.100000
   -0.337990     0.113517     1.523464     1.200000     1.100000
    1.459612    -0.999280     0.985076     1.700000     1.100000
    1.889507    -0.917784     1.988422     1.200000     1.100000
    0.939242    -1.957153     0.942698     1.200000     1.100000
    2.400074     1.526641     0.121689     1.700000     1.100000
    2.824822     2.511480    -0.037221     1.200000     1.100000
    3.119623     0.428287    -0.247977     1.700000     1.100000
    4.085353     0.547852    -0.723900     1.200000     1.100000
    2.592636    -0.958956    -0.042799     1.700000     1.100000
    2.246423    -1.357949    -1.005214     1.200000     1.100000
    3.401580    -1.623929     0.270629     1.200000     1.100000
   -1.112786    -1.427748    -0.675736     1.700000     1.100000
   -0.556231    -2.329182    -0.898405     1.200000     1.100000
   -2.400074    -1.526641    -0.121689     1.700000     1.100000
   -2.824822    -2.511480     0.037221     1.200000     1.100000
   -1.459612     0.999279    -0.985076     1.700000     1.100000
   -0.939242     1.957153    -0.942698     1.200000     1.100000
   -1.889507     0.917784    -1.988422     1.200000     1.100000
   -2.592636     0.958956     0.042799     1.700000     1.100000
   -3.401580     1.623929    -0.270628     1.200000     1.100000
   -2.246422     1.357949     1.005214     1.200000     1.100000

--link1--
%chk=meso-TS_7_1_xp-105.chk
%nproc=24
%mem=48GB
#p uwb97xd guess=mix def2tzvp 
# scrf=(iefpcm,solvent=Cyclohexane,read) nosym guess=only pop=none 

endo-2
xp-pcm for eta=3

0 1
  6  -3.119623  -0.428287   0.247977 
  6  -0.467744  -0.142247  -0.792389 
  1  -4.085353  -0.547852   0.723900 
  1   0.337990  -0.113517  -1.523464 
  6   1.112786   1.427748   0.675736 
  6   0.467744   0.142247   0.792389 
  1   0.556231   2.329182   0.898405 
  1  -0.337990   0.113517   1.523464 
  6   1.459612  -0.999280   0.985076 
  1   1.889507  -0.917784   1.988422 
  1   0.939242  -1.957153   0.942698 
  6   2.400074   1.526641   0.121689 
  1   2.824822   2.511480  -0.037221 
  6   3.119623   0.428287  -0.247977 
  1   4.085353   0.547852  -0.723900 
  6   2.592636  -0.958956  -0.042799 
  1   2.246423  -1.357949  -1.005214 
  1   3.401580  -1.623929   0.270629 
  6  -1.112786  -1.427748  -0.675736 
  1  -0.556231  -2.329182  -0.898405 
  6  -2.400074  -1.526641  -0.121689 
  1  -2.824822  -2.511480   0.037221 
  6  -1.459612   0.999279  -0.985076 
  1  -0.939242   1.957153  -0.942698 
  1  -1.889507   0.917784  -1.988422 
  6  -2.592636   0.958956   0.042799 
  1  -3.401580   1.623929  -0.270628 
  1  -2.246422   1.357949   1.005214 

qrep pcmdoc geomview  nodis nocav g03defaults tsare=0.075 
nsfe=28
NVESolv=36  SolvMW=84.1595   Rsolv=2.815 
eps=2.0165 RhoS=0.7781

   -3.119623    -0.428287     0.247977     1.700000     1.050000
   -0.467744    -0.142247    -0.792389     1.700000     1.050000
   -4.085353    -0.547852     0.723900     1.200000     1.050000
    0.337990    -0.113517    -1.523464     1.200000     1.050000
    1.112786     1.427748     0.675736     1.700000     1.050000
    0.467744     0.142247     0.792389     1.700000     1.050000
    0.556231     2.329182     0.898405     1.200000     1.050000
   -0.337990     0.113517     1.523464     1.200000     1.050000
    1.459612    -0.999280     0.985076     1.700000     1.050000
    1.889507    -0.917784     1.988422     1.200000     1.050000
    0.939242    -1.957153     0.942698     1.200000     1.050000
    2.400074     1.526641     0.121689     1.700000     1.050000
    2.824822     2.511480    -0.037221     1.200000     1.050000
    3.119623     0.428287    -0.247977     1.700000     1.050000
    4.085353     0.547852    -0.723900     1.200000     1.050000
    2.592636    -0.958956    -0.042799     1.700000     1.050000
    2.246423    -1.357949    -1.005214     1.200000     1.050000
    3.401580    -1.623929     0.270629     1.200000     1.050000
   -1.112786    -1.427748    -0.675736     1.700000     1.050000
   -0.556231    -2.329182    -0.898405     1.200000     1.050000
   -2.400074    -1.526641    -0.121689     1.700000     1.050000
   -2.824822    -2.511480     0.037221     1.200000     1.050000
   -1.459612     0.999279    -0.985076     1.700000     1.050000
   -0.939242     1.957153    -0.942698     1.200000     1.050000
   -1.889507     0.917784    -1.988422     1.200000     1.050000
   -2.592636     0.958956     0.042799     1.700000     1.050000
   -3.401580     1.623929    -0.270628     1.200000     1.050000
   -2.246422     1.357949     1.005214     1.200000     1.050000

--link1--
%chk=meso-TS_7_1_xp-100.chk
%nproc=24
%mem=48GB
#p uwb97xd guess=mix def2tzvp 
# scrf=(iefpcm,solvent=Cyclohexane,read) nosym guess=only pop=none 

endo-2
xp-pcm for eta=3

0 1
  6  -3.119623  -0.428287   0.247977 
  6  -0.467744  -0.142247  -0.792389 
  1  -4.085353  -0.547852   0.723900 
  1   0.337990  -0.113517  -1.523464 
  6   1.112786   1.427748   0.675736 
  6   0.467744   0.142247   0.792389 
  1   0.556231   2.329182   0.898405 
  1  -0.337990   0.113517   1.523464 
  6   1.459612  -0.999280   0.985076 
  1   1.889507  -0.917784   1.988422 
  1   0.939242  -1.957153   0.942698 
  6   2.400074   1.526641   0.121689 
  1   2.824822   2.511480  -0.037221 
  6   3.119623   0.428287  -0.247977 
  1   4.085353   0.547852  -0.723900 
  6   2.592636  -0.958956  -0.042799 
  1   2.246423  -1.357949  -1.005214 
  1   3.401580  -1.623929   0.270629 
  6  -1.112786  -1.427748  -0.675736 
  1  -0.556231  -2.329182  -0.898405 
  6  -2.400074  -1.526641  -0.121689 
  1  -2.824822  -2.511480   0.037221 
  6  -1.459612   0.999279  -0.985076 
  1  -0.939242   1.957153  -0.942698 
  1  -1.889507   0.917784  -1.988422 
  6  -2.592636   0.958956   0.042799 
  1  -3.401580   1.623929  -0.270628 
  1  -2.246422   1.357949   1.005214 

qrep pcmdoc geomview  nodis nocav g03defaults tsare=0.075 
nsfe=28
NVESolv=36  SolvMW=84.1595   Rsolv=2.815 
eps=2.0165 RhoS=0.7781

   -3.119623    -0.428287     0.247977     1.700000     1.000000
   -0.467744    -0.142247    -0.792389     1.700000     1.000000
   -4.085353    -0.547852     0.723900     1.200000     1.000000
    0.337990    -0.113517    -1.523464     1.200000     1.000000
    1.112786     1.427748     0.675736     1.700000     1.000000
    0.467744     0.142247     0.792389     1.700000     1.000000
    0.556231     2.329182     0.898405     1.200000     1.000000
   -0.337990     0.113517     1.523464     1.200000     1.000000
    1.459612    -0.999280     0.985076     1.700000     1.000000
    1.889507    -0.917784     1.988422     1.200000     1.000000
    0.939242    -1.957153     0.942698     1.200000     1.000000
    2.400074     1.526641     0.121689     1.700000     1.000000
    2.824822     2.511480    -0.037221     1.200000     1.000000
    3.119623     0.428287    -0.247977     1.700000     1.000000
    4.085353     0.547852    -0.723900     1.200000     1.000000
    2.592636    -0.958956    -0.042799     1.700000     1.000000
    2.246423    -1.357949    -1.005214     1.200000     1.000000
    3.401580    -1.623929     0.270629     1.200000     1.000000
   -1.112786    -1.427748    -0.675736     1.700000     1.000000
   -0.556231    -2.329182    -0.898405     1.200000     1.000000
   -2.400074    -1.526641    -0.121689     1.700000     1.000000
   -2.824822    -2.511480     0.037221     1.200000     1.000000
   -1.459612     0.999279    -0.985076     1.700000     1.000000
   -0.939242     1.957153    -0.942698     1.200000     1.000000
   -1.889507     0.917784    -1.988422     1.200000     1.000000
   -2.592636     0.958956     0.042799     1.700000     1.000000
   -3.401580     1.623929    -0.270628     1.200000     1.000000
   -2.246422     1.357949     1.005214     1.200000     1.000000

--link1--
%chk=meso-TS_7_1_xp-0975.chk
%nproc=24
%mem=48GB
#p uwb97xd guess=mix def2tzvp 
# scrf=(iefpcm,solvent=Cyclohexane,read) nosym guess=only pop=none 

endo-2
xp-pcm for eta=3

0 1
  6  -3.119623  -0.428287   0.247977 
  6  -0.467744  -0.142247  -0.792389 
  1  -4.085353  -0.547852   0.723900 
  1   0.337990  -0.113517  -1.523464 
  6   1.112786   1.427748   0.675736 
  6   0.467744   0.142247   0.792389 
  1   0.556231   2.329182   0.898405 
  1  -0.337990   0.113517   1.523464 
  6   1.459612  -0.999280   0.985076 
  1   1.889507  -0.917784   1.988422 
  1   0.939242  -1.957153   0.942698 
  6   2.400074   1.526641   0.121689 
  1   2.824822   2.511480  -0.037221 
  6   3.119623   0.428287  -0.247977 
  1   4.085353   0.547852  -0.723900 
  6   2.592636  -0.958956  -0.042799 
  1   2.246423  -1.357949  -1.005214 
  1   3.401580  -1.623929   0.270629 
  6  -1.112786  -1.427748  -0.675736 
  1  -0.556231  -2.329182  -0.898405 
  6  -2.400074  -1.526641  -0.121689 
  1  -2.824822  -2.511480   0.037221 
  6  -1.459612   0.999279  -0.985076 
  1  -0.939242   1.957153  -0.942698 
  1  -1.889507   0.917784  -1.988422 
  6  -2.592636   0.958956   0.042799 
  1  -3.401580   1.623929  -0.270628 
  1  -2.246422   1.357949   1.005214 

qrep pcmdoc geomview  nodis nocav g03defaults tsare=0.075 
nsfe=28
NVESolv=36  SolvMW=84.1595   Rsolv=2.815 
eps=2.0165 RhoS=0.7781

   -3.119623    -0.428287     0.247977     1.700000     0.975000
   -0.467744    -0.142247    -0.792389     1.700000     0.975000
   -4.085353    -0.547852     0.723900     1.200000     0.975000
    0.337990    -0.113517    -1.523464     1.200000     0.975000
    1.112786     1.427748     0.675736     1.700000     0.975000
    0.467744     0.142247     0.792389     1.700000     0.975000
    0.556231     2.329182     0.898405     1.200000     0.975000
   -0.337990     0.113517     1.523464     1.200000     0.975000
    1.459612    -0.999280     0.985076     1.700000     0.975000
    1.889507    -0.917784     1.988422     1.200000     0.975000
    0.939242    -1.957153     0.942698     1.200000     0.975000
    2.400074     1.526641     0.121689     1.700000     0.975000
    2.824822     2.511480    -0.037221     1.200000     0.975000
    3.119623     0.428287    -0.247977     1.700000     0.975000
    4.085353     0.547852    -0.723900     1.200000     0.975000
    2.592636    -0.958956    -0.042799     1.700000     0.975000
    2.246423    -1.357949    -1.005214     1.200000     0.975000
    3.401580    -1.623929     0.270629     1.200000     0.975000
   -1.112786    -1.427748    -0.675736     1.700000     0.975000
   -0.556231    -2.329182    -0.898405     1.200000     0.975000
   -2.400074    -1.526641    -0.121689     1.700000     0.975000
   -2.824822    -2.511480     0.037221     1.200000     0.975000
   -1.459612     0.999279    -0.985076     1.700000     0.975000
   -0.939242     1.957153    -0.942698     1.200000     0.975000
   -1.889507     0.917784    -1.988422     1.200000     0.975000
   -2.592636     0.958956     0.042799     1.700000     0.975000
   -3.401580     1.623929    -0.270628     1.200000     0.975000
   -2.246422     1.357949     1.005214     1.200000     0.975000

--link1--
%chk=meso-TS_7_1_xp-095.chk
%nproc=24
%mem=48GB
#p uwb97xd guess=mix def2tzvp 
# scrf=(iefpcm,solvent=Cyclohexane,read) nosym guess=only pop=none 

endo-2
xp-pcm for eta=3

0 1
  6  -3.119623  -0.428287   0.247977 
  6  -0.467744  -0.142247  -0.792389 
  1  -4.085353  -0.547852   0.723900 
  1   0.337990  -0.113517  -1.523464 
  6   1.112786   1.427748   0.675736 
  6   0.467744   0.142247   0.792389 
  1   0.556231   2.329182   0.898405 
  1  -0.337990   0.113517   1.523464 
  6   1.459612  -0.999280   0.985076 
  1   1.889507  -0.917784   1.988422 
  1   0.939242  -1.957153   0.942698 
  6   2.400074   1.526641   0.121689 
  1   2.824822   2.511480  -0.037221 
  6   3.119623   0.428287  -0.247977 
  1   4.085353   0.547852  -0.723900 
  6   2.592636  -0.958956  -0.042799 
  1   2.246423  -1.357949  -1.005214 
  1   3.401580  -1.623929   0.270629 
  6  -1.112786  -1.427748  -0.675736 
  1  -0.556231  -2.329182  -0.898405 
  6  -2.400074  -1.526641  -0.121689 
  1  -2.824822  -2.511480   0.037221 
  6  -1.459612   0.999279  -0.985076 
  1  -0.939242   1.957153  -0.942698 
  1  -1.889507   0.917784  -1.988422 
  6  -2.592636   0.958956   0.042799 
  1  -3.401580   1.623929  -0.270628 
  1  -2.246422   1.357949   1.005214 

qrep pcmdoc geomview  nodis nocav g03defaults tsare=0.075 
nsfe=28
NVESolv=36  SolvMW=84.1595   Rsolv=2.815 
eps=2.0165 RhoS=0.7781

   -3.119623    -0.428287     0.247977     1.700000     0.950000
   -0.467744    -0.142247    -0.792389     1.700000     0.950000
   -4.085353    -0.547852     0.723900     1.200000     0.950000
    0.337990    -0.113517    -1.523464     1.200000     0.950000
    1.112786     1.427748     0.675736     1.700000     0.950000
    0.467744     0.142247     0.792389     1.700000     0.950000
    0.556231     2.329182     0.898405     1.200000     0.950000
   -0.337990     0.113517     1.523464     1.200000     0.950000
    1.459612    -0.999280     0.985076     1.700000     0.950000
    1.889507    -0.917784     1.988422     1.200000     0.950000
    0.939242    -1.957153     0.942698     1.200000     0.950000
    2.400074     1.526641     0.121689     1.700000     0.950000
    2.824822     2.511480    -0.037221     1.200000     0.950000
    3.119623     0.428287    -0.247977     1.700000     0.950000
    4.085353     0.547852    -0.723900     1.200000     0.950000
    2.592636    -0.958956    -0.042799     1.700000     0.950000
    2.246423    -1.357949    -1.005214     1.200000     0.950000
    3.401580    -1.623929     0.270629     1.200000     0.950000
   -1.112786    -1.427748    -0.675736     1.700000     0.950000
   -0.556231    -2.329182    -0.898405     1.200000     0.950000
   -2.400074    -1.526641    -0.121689     1.700000     0.950000
   -2.824822    -2.511480     0.037221     1.200000     0.950000
   -1.459612     0.999279    -0.985076     1.700000     0.950000
   -0.939242     1.957153    -0.942698     1.200000     0.950000
   -1.889507     0.917784    -1.988422     1.200000     0.950000
   -2.592636     0.958956     0.042799     1.700000     0.950000
   -3.401580     1.623929    -0.270628     1.200000     0.950000
   -2.246422     1.357949     1.005214     1.200000     0.950000

