%chk=meso-TS_1_2_xp-12.chk
%nproc=24
%mem=48GB
#p uwb97xd guess=mix def2tzvp 
# scrf=(iefpcm,solvent=Cyclohexane,read) nosym guess=only pop=none 

endo-2
xp-pcm for eta=3

0 1
  6  -3.118670  -0.432956   0.247226 
  6  -0.509469  -0.167984  -0.858002 
  1  -4.083546  -0.549105   0.726486 
  1   0.360157  -0.116106  -1.503444 
  6   1.101339   1.415489   0.682520 
  6   0.509469   0.167984   0.858002 
  1   0.540414   2.319583   0.882812 
  1  -0.360157   0.116106   1.503444 
  6   1.463271  -0.999883   0.987744 
  1   1.900513  -0.942148   1.990648 
  1   0.926831  -1.947518   0.934189 
  6   2.408817   1.521066   0.116868 
  1   2.824758   2.508464  -0.047474 
  6   3.118670   0.432956  -0.247226 
  1   4.083546   0.549105  -0.726486 
  6   2.592153  -0.958523  -0.043594 
  1   2.249577  -1.356847  -1.007017 
  1   3.401074  -1.622064   0.271288 
  6  -1.101339  -1.415489  -0.682520 
  1  -0.540414  -2.319583  -0.882812 
  6  -2.408817  -1.521066  -0.116868 
  1  -2.824758  -2.508464   0.047474 
  6  -1.463271   0.999883  -0.987744 
  1  -0.926831   1.947518  -0.934189 
  1  -1.900513   0.942148  -1.990648 
  6  -2.592153   0.958523   0.043594 
  1  -3.401074   1.622064  -0.271288 
  1  -2.249577   1.356847   1.007017 

qrep pcmdoc geomview  nodis nocav g03defaults tsare=0.075 
nsfe=28
NVESolv=36  SolvMW=84.1595   Rsolv=2.815 
eps=2.0165 RhoS=0.7781

   -3.118670    -0.432956     0.247226     1.700000     1.200000
   -0.509469    -0.167984    -0.858002     1.700000     1.200000
   -4.083546    -0.549105     0.726486     1.200000     1.200000
    0.360157    -0.116106    -1.503444     1.200000     1.200000
    1.101339     1.415489     0.682520     1.700000     1.200000
    0.509469     0.167984     0.858002     1.700000     1.200000
    0.540414     2.319583     0.882812     1.200000     1.200000
   -0.360157     0.116106     1.503444     1.200000     1.200000
    1.463271    -0.999883     0.987744     1.700000     1.200000
    1.900513    -0.942148     1.990648     1.200000     1.200000
    0.926831    -1.947518     0.934189     1.200000     1.200000
    2.408817     1.521066     0.116868     1.700000     1.200000
    2.824758     2.508464    -0.047474     1.200000     1.200000
    3.118670     0.432956    -0.247226     1.700000     1.200000
    4.083546     0.549105    -0.726486     1.200000     1.200000
    2.592153    -0.958523    -0.043594     1.700000     1.200000
    2.249577    -1.356847    -1.007017     1.200000     1.200000
    3.401074    -1.622064     0.271288     1.200000     1.200000
   -1.101339    -1.415489    -0.682520     1.700000     1.200000
   -0.540414    -2.319583    -0.882812     1.200000     1.200000
   -2.408817    -1.521066    -0.116868     1.700000     1.200000
   -2.824758    -2.508464     0.047474     1.200000     1.200000
   -1.463271     0.999883    -0.987744     1.700000     1.200000
   -0.926831     1.947518    -0.934189     1.200000     1.200000
   -1.900513     0.942148    -1.990648     1.200000     1.200000
   -2.592153     0.958523     0.043594     1.700000     1.200000
   -3.401074     1.622064    -0.271288     1.200000     1.200000
   -2.249577     1.356847     1.007017     1.200000     1.200000

--link1--
%chk=meso-TS_1_2_xp-115.chk
%nproc=24
%mem=48GB
#p uwb97xd guess=mix def2tzvp 
# scrf=(iefpcm,solvent=Cyclohexane,read) nosym guess=only pop=none 

endo-2
xp-pcm for eta=3

0 1
  6  -3.118670  -0.432956   0.247226 
  6  -0.509469  -0.167984  -0.858002 
  1  -4.083546  -0.549105   0.726486 
  1   0.360157  -0.116106  -1.503444 
  6   1.101339   1.415489   0.682520 
  6   0.509469   0.167984   0.858002 
  1   0.540414   2.319583   0.882812 
  1  -0.360157   0.116106   1.503444 
  6   1.463271  -0.999883   0.987744 
  1   1.900513  -0.942148   1.990648 
  1   0.926831  -1.947518   0.934189 
  6   2.408817   1.521066   0.116868 
  1   2.824758   2.508464  -0.047474 
  6   3.118670   0.432956  -0.247226 
  1   4.083546   0.549105  -0.726486 
  6   2.592153  -0.958523  -0.043594 
  1   2.249577  -1.356847  -1.007017 
  1   3.401074  -1.622064   0.271288 
  6  -1.101339  -1.415489  -0.682520 
  1  -0.540414  -2.319583  -0.882812 
  6  -2.408817  -1.521066  -0.116868 
  1  -2.824758  -2.508464   0.047474 
  6  -1.463271   0.999883  -0.987744 
  1  -0.926831   1.947518  -0.934189 
  1  -1.900513   0.942148  -1.990648 
  6  -2.592153   0.958523   0.043594 
  1  -3.401074   1.622064  -0.271288 
  1  -2.249577   1.356847   1.007017 

qrep pcmdoc geomview  nodis nocav g03defaults tsare=0.075 
nsfe=28
NVESolv=36  SolvMW=84.1595   Rsolv=2.815 
eps=2.0165 RhoS=0.7781

   -3.118670    -0.432956     0.247226     1.700000     1.150000
   -0.509469    -0.167984    -0.858002     1.700000     1.150000
   -4.083546    -0.549105     0.726486     1.200000     1.150000
    0.360157    -0.116106    -1.503444     1.200000     1.150000
    1.101339     1.415489     0.682520     1.700000     1.150000
    0.509469     0.167984     0.858002     1.700000     1.150000
    0.540414     2.319583     0.882812     1.200000     1.150000
   -0.360157     0.116106     1.503444     1.200000     1.150000
    1.463271    -0.999883     0.987744     1.700000     1.150000
    1.900513    -0.942148     1.990648     1.200000     1.150000
    0.926831    -1.947518     0.934189     1.200000     1.150000
    2.408817     1.521066     0.116868     1.700000     1.150000
    2.824758     2.508464    -0.047474     1.200000     1.150000
    3.118670     0.432956    -0.247226     1.700000     1.150000
    4.083546     0.549105    -0.726486     1.200000     1.150000
    2.592153    -0.958523    -0.043594     1.700000     1.150000
    2.249577    -1.356847    -1.007017     1.200000     1.150000
    3.401074    -1.622064     0.271288     1.200000     1.150000
   -1.101339    -1.415489    -0.682520     1.700000     1.150000
   -0.540414    -2.319583    -0.882812     1.200000     1.150000
   -2.408817    -1.521066    -0.116868     1.700000     1.150000
   -2.824758    -2.508464     0.047474     1.200000     1.150000
   -1.463271     0.999883    -0.987744     1.700000     1.150000
   -0.926831     1.947518    -0.934189     1.200000     1.150000
   -1.900513     0.942148    -1.990648     1.200000     1.150000
   -2.592153     0.958523     0.043594     1.700000     1.150000
   -3.401074     1.622064    -0.271288     1.200000     1.150000
   -2.249577     1.356847     1.007017     1.200000     1.150000

--link1--
%chk=meso-TS_1_2_xp-110.chk
%nproc=24
%mem=48GB
#p uwb97xd guess=mix def2tzvp 
# scrf=(iefpcm,solvent=Cyclohexane,read) nosym guess=only pop=none 

endo-2
xp-pcm for eta=3

0 1
  6  -3.118670  -0.432956   0.247226 
  6  -0.509469  -0.167984  -0.858002 
  1  -4.083546  -0.549105   0.726486 
  1   0.360157  -0.116106  -1.503444 
  6   1.101339   1.415489   0.682520 
  6   0.509469   0.167984   0.858002 
  1   0.540414   2.319583   0.882812 
  1  -0.360157   0.116106   1.503444 
  6   1.463271  -0.999883   0.987744 
  1   1.900513  -0.942148   1.990648 
  1   0.926831  -1.947518   0.934189 
  6   2.408817   1.521066   0.116868 
  1   2.824758   2.508464  -0.047474 
  6   3.118670   0.432956  -0.247226 
  1   4.083546   0.549105  -0.726486 
  6   2.592153  -0.958523  -0.043594 
  1   2.249577  -1.356847  -1.007017 
  1   3.401074  -1.622064   0.271288 
  6  -1.101339  -1.415489  -0.682520 
  1  -0.540414  -2.319583  -0.882812 
  6  -2.408817  -1.521066  -0.116868 
  1  -2.824758  -2.508464   0.047474 
  6  -1.463271   0.999883  -0.987744 
  1  -0.926831   1.947518  -0.934189 
  1  -1.900513   0.942148  -1.990648 
  6  -2.592153   0.958523   0.043594 
  1  -3.401074   1.622064  -0.271288 
  1  -2.249577   1.356847   1.007017 

qrep pcmdoc geomview  nodis nocav g03defaults tsare=0.075 
nsfe=28
NVESolv=36  SolvMW=84.1595   Rsolv=2.815 
eps=2.0165 RhoS=0.7781

   -3.118670    -0.432956     0.247226     1.700000     1.100000
   -0.509469    -0.167984    -0.858002     1.700000     1.100000
   -4.083546    -0.549105     0.726486     1.200000     1.100000
    0.360157    -0.116106    -1.503444     1.200000     1.100000
    1.101339     1.415489     0.682520     1.700000     1.100000
    0.509469     0.167984     0.858002     1.700000     1.100000
    0.540414     2.319583     0.882812     1.200000     1.100000
   -0.360157     0.116106     1.503444     1.200000     1.100000
    1.463271    -0.999883     0.987744     1.700000     1.100000
    1.900513    -0.942148     1.990648     1.200000     1.100000
    0.926831    -1.947518     0.934189     1.200000     1.100000
    2.408817     1.521066     0.116868     1.700000     1.100000
    2.824758     2.508464    -0.047474     1.200000     1.100000
    3.118670     0.432956    -0.247226     1.700000     1.100000
    4.083546     0.549105    -0.726486     1.200000     1.100000
    2.592153    -0.958523    -0.043594     1.700000     1.100000
    2.249577    -1.356847    -1.007017     1.200000     1.100000
    3.401074    -1.622064     0.271288     1.200000     1.100000
   -1.101339    -1.415489    -0.682520     1.700000     1.100000
   -0.540414    -2.319583    -0.882812     1.200000     1.100000
   -2.408817    -1.521066    -0.116868     1.700000     1.100000
   -2.824758    -2.508464     0.047474     1.200000     1.100000
   -1.463271     0.999883    -0.987744     1.700000     1.100000
   -0.926831     1.947518    -0.934189     1.200000     1.100000
   -1.900513     0.942148    -1.990648     1.200000     1.100000
   -2.592153     0.958523     0.043594     1.700000     1.100000
   -3.401074     1.622064    -0.271288     1.200000     1.100000
   -2.249577     1.356847     1.007017     1.200000     1.100000

--link1--
%chk=meso-TS_1_2_xp-105.chk
%nproc=24
%mem=48GB
#p uwb97xd guess=mix def2tzvp 
# scrf=(iefpcm,solvent=Cyclohexane,read) nosym guess=only pop=none 

endo-2
xp-pcm for eta=3

0 1
  6  -3.118670  -0.432956   0.247226 
  6  -0.509469  -0.167984  -0.858002 
  1  -4.083546  -0.549105   0.726486 
  1   0.360157  -0.116106  -1.503444 
  6   1.101339   1.415489   0.682520 
  6   0.509469   0.167984   0.858002 
  1   0.540414   2.319583   0.882812 
  1  -0.360157   0.116106   1.503444 
  6   1.463271  -0.999883   0.987744 
  1   1.900513  -0.942148   1.990648 
  1   0.926831  -1.947518   0.934189 
  6   2.408817   1.521066   0.116868 
  1   2.824758   2.508464  -0.047474 
  6   3.118670   0.432956  -0.247226 
  1   4.083546   0.549105  -0.726486 
  6   2.592153  -0.958523  -0.043594 
  1   2.249577  -1.356847  -1.007017 
  1   3.401074  -1.622064   0.271288 
  6  -1.101339  -1.415489  -0.682520 
  1  -0.540414  -2.319583  -0.882812 
  6  -2.408817  -1.521066  -0.116868 
  1  -2.824758  -2.508464   0.047474 
  6  -1.463271   0.999883  -0.987744 
  1  -0.926831   1.947518  -0.934189 
  1  -1.900513   0.942148  -1.990648 
  6  -2.592153   0.958523   0.043594 
  1  -3.401074   1.622064  -0.271288 
  1  -2.249577   1.356847   1.007017 

qrep pcmdoc geomview  nodis nocav g03defaults tsare=0.075 
nsfe=28
NVESolv=36  SolvMW=84.1595   Rsolv=2.815 
eps=2.0165 RhoS=0.7781

   -3.118670    -0.432956     0.247226     1.700000     1.050000
   -0.509469    -0.167984    -0.858002     1.700000     1.050000
   -4.083546    -0.549105     0.726486     1.200000     1.050000
    0.360157    -0.116106    -1.503444     1.200000     1.050000
    1.101339     1.415489     0.682520     1.700000     1.050000
    0.509469     0.167984     0.858002     1.700000     1.050000
    0.540414     2.319583     0.882812     1.200000     1.050000
   -0.360157     0.116106     1.503444     1.200000     1.050000
    1.463271    -0.999883     0.987744     1.700000     1.050000
    1.900513    -0.942148     1.990648     1.200000     1.050000
    0.926831    -1.947518     0.934189     1.200000     1.050000
    2.408817     1.521066     0.116868     1.700000     1.050000
    2.824758     2.508464    -0.047474     1.200000     1.050000
    3.118670     0.432956    -0.247226     1.700000     1.050000
    4.083546     0.549105    -0.726486     1.200000     1.050000
    2.592153    -0.958523    -0.043594     1.700000     1.050000
    2.249577    -1.356847    -1.007017     1.200000     1.050000
    3.401074    -1.622064     0.271288     1.200000     1.050000
   -1.101339    -1.415489    -0.682520     1.700000     1.050000
   -0.540414    -2.319583    -0.882812     1.200000     1.050000
   -2.408817    -1.521066    -0.116868     1.700000     1.050000
   -2.824758    -2.508464     0.047474     1.200000     1.050000
   -1.463271     0.999883    -0.987744     1.700000     1.050000
   -0.926831     1.947518    -0.934189     1.200000     1.050000
   -1.900513     0.942148    -1.990648     1.200000     1.050000
   -2.592153     0.958523     0.043594     1.700000     1.050000
   -3.401074     1.622064    -0.271288     1.200000     1.050000
   -2.249577     1.356847     1.007017     1.200000     1.050000

--link1--
%chk=meso-TS_1_2_xp-100.chk
%nproc=24
%mem=48GB
#p uwb97xd guess=mix def2tzvp 
# scrf=(iefpcm,solvent=Cyclohexane,read) nosym guess=only pop=none 

endo-2
xp-pcm for eta=3

0 1
  6  -3.118670  -0.432956   0.247226 
  6  -0.509469  -0.167984  -0.858002 
  1  -4.083546  -0.549105   0.726486 
  1   0.360157  -0.116106  -1.503444 
  6   1.101339   1.415489   0.682520 
  6   0.509469   0.167984   0.858002 
  1   0.540414   2.319583   0.882812 
  1  -0.360157   0.116106   1.503444 
  6   1.463271  -0.999883   0.987744 
  1   1.900513  -0.942148   1.990648 
  1   0.926831  -1.947518   0.934189 
  6   2.408817   1.521066   0.116868 
  1   2.824758   2.508464  -0.047474 
  6   3.118670   0.432956  -0.247226 
  1   4.083546   0.549105  -0.726486 
  6   2.592153  -0.958523  -0.043594 
  1   2.249577  -1.356847  -1.007017 
  1   3.401074  -1.622064   0.271288 
  6  -1.101339  -1.415489  -0.682520 
  1  -0.540414  -2.319583  -0.882812 
  6  -2.408817  -1.521066  -0.116868 
  1  -2.824758  -2.508464   0.047474 
  6  -1.463271   0.999883  -0.987744 
  1  -0.926831   1.947518  -0.934189 
  1  -1.900513   0.942148  -1.990648 
  6  -2.592153   0.958523   0.043594 
  1  -3.401074   1.622064  -0.271288 
  1  -2.249577   1.356847   1.007017 

qrep pcmdoc geomview  nodis nocav g03defaults tsare=0.075 
nsfe=28
NVESolv=36  SolvMW=84.1595   Rsolv=2.815 
eps=2.0165 RhoS=0.7781

   -3.118670    -0.432956     0.247226     1.700000     1.000000
   -0.509469    -0.167984    -0.858002     1.700000     1.000000
   -4.083546    -0.549105     0.726486     1.200000     1.000000
    0.360157    -0.116106    -1.503444     1.200000     1.000000
    1.101339     1.415489     0.682520     1.700000     1.000000
    0.509469     0.167984     0.858002     1.700000     1.000000
    0.540414     2.319583     0.882812     1.200000     1.000000
   -0.360157     0.116106     1.503444     1.200000     1.000000
    1.463271    -0.999883     0.987744     1.700000     1.000000
    1.900513    -0.942148     1.990648     1.200000     1.000000
    0.926831    -1.947518     0.934189     1.200000     1.000000
    2.408817     1.521066     0.116868     1.700000     1.000000
    2.824758     2.508464    -0.047474     1.200000     1.000000
    3.118670     0.432956    -0.247226     1.700000     1.000000
    4.083546     0.549105    -0.726486     1.200000     1.000000
    2.592153    -0.958523    -0.043594     1.700000     1.000000
    2.249577    -1.356847    -1.007017     1.200000     1.000000
    3.401074    -1.622064     0.271288     1.200000     1.000000
   -1.101339    -1.415489    -0.682520     1.700000     1.000000
   -0.540414    -2.319583    -0.882812     1.200000     1.000000
   -2.408817    -1.521066    -0.116868     1.700000     1.000000
   -2.824758    -2.508464     0.047474     1.200000     1.000000
   -1.463271     0.999883    -0.987744     1.700000     1.000000
   -0.926831     1.947518    -0.934189     1.200000     1.000000
   -1.900513     0.942148    -1.990648     1.200000     1.000000
   -2.592153     0.958523     0.043594     1.700000     1.000000
   -3.401074     1.622064    -0.271288     1.200000     1.000000
   -2.249577     1.356847     1.007017     1.200000     1.000000

--link1--
%chk=meso-TS_1_2_xp-0975.chk
%nproc=24
%mem=48GB
#p uwb97xd guess=mix def2tzvp 
# scrf=(iefpcm,solvent=Cyclohexane,read) nosym guess=only pop=none 

endo-2
xp-pcm for eta=3

0 1
  6  -3.118670  -0.432956   0.247226 
  6  -0.509469  -0.167984  -0.858002 
  1  -4.083546  -0.549105   0.726486 
  1   0.360157  -0.116106  -1.503444 
  6   1.101339   1.415489   0.682520 
  6   0.509469   0.167984   0.858002 
  1   0.540414   2.319583   0.882812 
  1  -0.360157   0.116106   1.503444 
  6   1.463271  -0.999883   0.987744 
  1   1.900513  -0.942148   1.990648 
  1   0.926831  -1.947518   0.934189 
  6   2.408817   1.521066   0.116868 
  1   2.824758   2.508464  -0.047474 
  6   3.118670   0.432956  -0.247226 
  1   4.083546   0.549105  -0.726486 
  6   2.592153  -0.958523  -0.043594 
  1   2.249577  -1.356847  -1.007017 
  1   3.401074  -1.622064   0.271288 
  6  -1.101339  -1.415489  -0.682520 
  1  -0.540414  -2.319583  -0.882812 
  6  -2.408817  -1.521066  -0.116868 
  1  -2.824758  -2.508464   0.047474 
  6  -1.463271   0.999883  -0.987744 
  1  -0.926831   1.947518  -0.934189 
  1  -1.900513   0.942148  -1.990648 
  6  -2.592153   0.958523   0.043594 
  1  -3.401074   1.622064  -0.271288 
  1  -2.249577   1.356847   1.007017 

qrep pcmdoc geomview  nodis nocav g03defaults tsare=0.075 
nsfe=28
NVESolv=36  SolvMW=84.1595   Rsolv=2.815 
eps=2.0165 RhoS=0.7781

   -3.118670    -0.432956     0.247226     1.700000     0.975000
   -0.509469    -0.167984    -0.858002     1.700000     0.975000
   -4.083546    -0.549105     0.726486     1.200000     0.975000
    0.360157    -0.116106    -1.503444     1.200000     0.975000
    1.101339     1.415489     0.682520     1.700000     0.975000
    0.509469     0.167984     0.858002     1.700000     0.975000
    0.540414     2.319583     0.882812     1.200000     0.975000
   -0.360157     0.116106     1.503444     1.200000     0.975000
    1.463271    -0.999883     0.987744     1.700000     0.975000
    1.900513    -0.942148     1.990648     1.200000     0.975000
    0.926831    -1.947518     0.934189     1.200000     0.975000
    2.408817     1.521066     0.116868     1.700000     0.975000
    2.824758     2.508464    -0.047474     1.200000     0.975000
    3.118670     0.432956    -0.247226     1.700000     0.975000
    4.083546     0.549105    -0.726486     1.200000     0.975000
    2.592153    -0.958523    -0.043594     1.700000     0.975000
    2.249577    -1.356847    -1.007017     1.200000     0.975000
    3.401074    -1.622064     0.271288     1.200000     0.975000
   -1.101339    -1.415489    -0.682520     1.700000     0.975000
   -0.540414    -2.319583    -0.882812     1.200000     0.975000
   -2.408817    -1.521066    -0.116868     1.700000     0.975000
   -2.824758    -2.508464     0.047474     1.200000     0.975000
   -1.463271     0.999883    -0.987744     1.700000     0.975000
   -0.926831     1.947518    -0.934189     1.200000     0.975000
   -1.900513     0.942148    -1.990648     1.200000     0.975000
   -2.592153     0.958523     0.043594     1.700000     0.975000
   -3.401074     1.622064    -0.271288     1.200000     0.975000
   -2.249577     1.356847     1.007017     1.200000     0.975000

--link1--
%chk=meso-TS_1_2_xp-095.chk
%nproc=24
%mem=48GB
#p uwb97xd guess=mix def2tzvp 
# scrf=(iefpcm,solvent=Cyclohexane,read) nosym guess=only pop=none 

endo-2
xp-pcm for eta=3

0 1
  6  -3.118670  -0.432956   0.247226 
  6  -0.509469  -0.167984  -0.858002 
  1  -4.083546  -0.549105   0.726486 
  1   0.360157  -0.116106  -1.503444 
  6   1.101339   1.415489   0.682520 
  6   0.509469   0.167984   0.858002 
  1   0.540414   2.319583   0.882812 
  1  -0.360157   0.116106   1.503444 
  6   1.463271  -0.999883   0.987744 
  1   1.900513  -0.942148   1.990648 
  1   0.926831  -1.947518   0.934189 
  6   2.408817   1.521066   0.116868 
  1   2.824758   2.508464  -0.047474 
  6   3.118670   0.432956  -0.247226 
  1   4.083546   0.549105  -0.726486 
  6   2.592153  -0.958523  -0.043594 
  1   2.249577  -1.356847  -1.007017 
  1   3.401074  -1.622064   0.271288 
  6  -1.101339  -1.415489  -0.682520 
  1  -0.540414  -2.319583  -0.882812 
  6  -2.408817  -1.521066  -0.116868 
  1  -2.824758  -2.508464   0.047474 
  6  -1.463271   0.999883  -0.987744 
  1  -0.926831   1.947518  -0.934189 
  1  -1.900513   0.942148  -1.990648 
  6  -2.592153   0.958523   0.043594 
  1  -3.401074   1.622064  -0.271288 
  1  -2.249577   1.356847   1.007017 

qrep pcmdoc geomview  nodis nocav g03defaults tsare=0.075 
nsfe=28
NVESolv=36  SolvMW=84.1595   Rsolv=2.815 
eps=2.0165 RhoS=0.7781

   -3.118670    -0.432956     0.247226     1.700000     0.950000
   -0.509469    -0.167984    -0.858002     1.700000     0.950000
   -4.083546    -0.549105     0.726486     1.200000     0.950000
    0.360157    -0.116106    -1.503444     1.200000     0.950000
    1.101339     1.415489     0.682520     1.700000     0.950000
    0.509469     0.167984     0.858002     1.700000     0.950000
    0.540414     2.319583     0.882812     1.200000     0.950000
   -0.360157     0.116106     1.503444     1.200000     0.950000
    1.463271    -0.999883     0.987744     1.700000     0.950000
    1.900513    -0.942148     1.990648     1.200000     0.950000
    0.926831    -1.947518     0.934189     1.200000     0.950000
    2.408817     1.521066     0.116868     1.700000     0.950000
    2.824758     2.508464    -0.047474     1.200000     0.950000
    3.118670     0.432956    -0.247226     1.700000     0.950000
    4.083546     0.549105    -0.726486     1.200000     0.950000
    2.592153    -0.958523    -0.043594     1.700000     0.950000
    2.249577    -1.356847    -1.007017     1.200000     0.950000
    3.401074    -1.622064     0.271288     1.200000     0.950000
   -1.101339    -1.415489    -0.682520     1.700000     0.950000
   -0.540414    -2.319583    -0.882812     1.200000     0.950000
   -2.408817    -1.521066    -0.116868     1.700000     0.950000
   -2.824758    -2.508464     0.047474     1.200000     0.950000
   -1.463271     0.999883    -0.987744     1.700000     0.950000
   -0.926831     1.947518    -0.934189     1.200000     0.950000
   -1.900513     0.942148    -1.990648     1.200000     0.950000
   -2.592153     0.958523     0.043594     1.700000     0.950000
   -3.401074     1.622064    -0.271288     1.200000     0.950000
   -2.249577     1.356847     1.007017     1.200000     0.950000

